#!/bin/bash

SCALE=6


FILENAME=bucky-32x32x$SCALE.raw

# we copy the input file to /tmp to avoid a legacy filesystem bug in simplesim
cp -f $FILENAME /tmp/

/homes/phjk/simplesim-wattch/sim-outorder $SSFLAGS ./tltree-ss 32 32 $SCALE /tmp/$FILENAME
