bpred	sim_num_insn	sim_num_refs	sim_num_loads	sim_num_stores	sim_num_branches	sim_elapsed_time	sim_inst_rate	sim_total_insn	sim_total_refs	sim_total_loads	sim_total_stores	sim_total_branches	sim_cycle	sim_IPC	sim_CPI	sim_exec_BW	sim_IPB	IFQ_count	IFQ_fcount	ifq_occupancy	ifq_rate	ifq_latency	ifq_full	RUU_count	RUU_fcount	ruu_occupancy	ruu_rate	ruu_latency	ruu_full	LSQ_count	LSQ_fcount	lsq_occupancy	lsq_rate	lsq_latency	lsq_full	sim_slip	avg_sim_slip	bpred_nottaken.lookups	bpred_nottaken.updates	bpred_nottaken.addr_hits	bpred_nottaken.dir_hits	bpred_nottaken.misses	bpred_nottaken.jr_hits	bpred_nottaken.jr_seen	bpred_nottaken.jr_non_ras_hits.PP	bpred_nottaken.jr_non_ras_seen.PP	bpred_nottaken.bpred_addr_rate	bpred_nottaken.bpred_dir_rate	bpred_nottaken.bpred_jr_rate	bpred_nottaken.bpred_jr_non_ras_rate.PP	bpred_nottaken.retstack_pushes	bpred_nottaken.retstack_pops	bpred_nottaken.used_ras.PP	bpred_nottaken.ras_hits.PP	bpred_nottaken.ras_rate.PP	il1.accesses	il1.hits	il1.misses	il1.replacements	il1.writebacks	il1.invalidations	il1.miss_rate	il1.repl_rate	il1.wb_rate	il1.inv_rate	dl1.accesses	dl1.hits	dl1.misses	dl1.replacements	dl1.writebacks	dl1.invalidations	dl1.miss_rate	dl1.repl_rate	dl1.wb_rate	dl1.inv_rate	ul2.accesses	ul2.hits	ul2.misses	ul2.replacements	ul2.writebacks	ul2.invalidations	ul2.miss_rate	ul2.repl_rate	ul2.wb_rate	ul2.inv_rate	itlb.accesses	itlb.hits	itlb.misses	itlb.replacements	itlb.writebacks	itlb.invalidations	itlb.miss_rate	itlb.repl_rate	itlb.wb_rate	itlb.inv_rate	dtlb.accesses	dtlb.hits	dtlb.misses	dtlb.replacements	dtlb.writebacks	dtlb.invalidations	dtlb.miss_rate	dtlb.repl_rate	dtlb.wb_rate	dtlb.inv_rate	rename_power	bpred_power	window_power	lsq_power	regfile_power	icache_power	dcache_power	dcache2_power	alu_power	falu_power	resultbus_power	clock_power	avg_rename_power	avg_bpred_power	avg_window_power	avg_lsq_power	avg_regfile_power	avg_icache_power	avg_dcache_power	avg_dcache2_power	avg_alu_power	avg_falu_power	avg_resultbus_power	avg_clock_power	fetch_stage_power	dispatch_stage_power	issue_stage_power	avg_fetch_power	avg_dispatch_power	avg_issue_power	total_power	avg_total_power_cycle	avg_total_power_cycle_nofp_nod2	avg_total_power_insn	avg_total_power_insn_nofp_nod2	rename_power_cc1	bpred_power_cc1	window_power_cc1	lsq_power_cc1	regfile_power_cc1	icache_power_cc1	dcache_power_cc1	dcache2_power_cc1	alu_power_cc1	resultbus_power_cc1	clock_power_cc1	avg_rename_power_cc1	avg_bpred_power_cc1	avg_window_power_cc1	avg_lsq_power_cc1	avg_regfile_power_cc1	avg_icache_power_cc1	avg_dcache_power_cc1	avg_dcache2_power_cc1	avg_alu_power_cc1	avg_resultbus_power_cc1	avg_clock_power_cc1	fetch_stage_power_cc1	dispatch_stage_power_cc1	issue_stage_power_cc1	avg_fetch_power_cc1	avg_dispatch_power_cc1	avg_issue_power_cc1	total_power_cycle_cc1	avg_total_power_cycle_cc1	avg_total_power_insn_cc1	rename_power_cc2	bpred_power_cc2	window_power_cc2	lsq_power_cc2	regfile_power_cc2	icache_power_cc2	dcache_power_cc2	dcache2_power_cc2	alu_power_cc2	resultbus_power_cc2	clock_power_cc2	avg_rename_power_cc2	avg_bpred_power_cc2	avg_window_power_cc2	avg_lsq_power_cc2	avg_regfile_power_cc2	avg_icache_power_cc2	avg_dcache_power_cc2	avg_dcache2_power_cc2	avg_alu_power_cc2	avg_resultbus_power_cc2	avg_clock_power_cc2	fetch_stage_power_cc2	dispatch_stage_power_cc2	issue_stage_power_cc2	avg_fetch_power_cc2	avg_dispatch_power_cc2	avg_issue_power_cc2	total_power_cycle_cc2	avg_total_power_cycle_cc2	avg_total_power_insn_cc2	rename_power_cc3	bpred_power_cc3	window_power_cc3	lsq_power_cc3	regfile_power_cc3	icache_power_cc3	dcache_power_cc3	dcache2_power_cc3	alu_power_cc3	resultbus_power_cc3	clock_power_cc3	avg_rename_power_cc3	avg_bpred_power_cc3	avg_window_power_cc3	avg_lsq_power_cc3	avg_regfile_power_cc3	avg_icache_power_cc3	avg_dcache_power_cc3	avg_dcache2_power_cc3	avg_alu_power_cc3	avg_resultbus_power_cc3	avg_clock_power_cc3	fetch_stage_power_cc3	dispatch_stage_power_cc3	issue_stage_power_cc3	avg_fetch_power_cc3	avg_dispatch_power_cc3	avg_issue_power_cc3	total_power_cycle_cc3	avg_total_power_cycle_cc3	avg_total_power_insn_cc3	total_rename_access	total_bpred_access	total_window_access	total_lsq_access	total_regfile_access	total_icache_access	total_dcache_access	total_dcache2_access	total_alu_access	total_resultbus_access	avg_rename_access	avg_bpred_access	avg_window_access	avg_lsq_access	avg_regfile_access	avg_icache_access	avg_dcache_access	avg_dcache2_access	avg_alu_access	avg_resultbus_access	max_rename_access	max_bpred_access	max_window_access	max_lsq_access	max_regfile_access	max_icache_access	max_dcache_access	max_dcache2_access	max_alu_access	max_resultbus_access	max_cycle_power_cc1	max_cycle_power_cc2	max_cycle_power_cc3	sim_invalid_addrs	ld_text_base	ld_text_size	ld_data_base	ld_data_size	ld_stack_base	ld_stack_size	ld_prog_entry	ld_environ_base	ld_target_big_endian	mem.page_count	mem.page_mem	mem.ptab_misses	mem.ptab_accesses	mem.ptab_miss_rate
nottaken	461881709	157978697	87361233	70617464.0000	82221707	548	842849.8339	793723774	260511624	149469277	111042347.0000	160848867	570574852	0.8095	1.2353	1.3911	5.6175	1465530888	320624858	2.5685	1.3911	1.8464	0.5619	4745046482	125821532	8.3163	1.3911	5.9782	0.2205	1382263088	29012760	2.4226	1.3911	1.7415	0.0508	5540343708 11.9952	11.9952	189592317	82221707	28978154	28978154	53243553	2628	6824838	2628	6824838	0.3524	0.3524	0.0004	0.0004	0	0	0	0		1 987295773	1 986540232	1 755541	1 755029	1 0	1 0	1 0.0008	1 0.0008	1 0.0000	1 0.0000	1 165627481	1 163545823	1 2081658	1 2081146	1 370082	1 0	1 0.0126	1 0.0126	1 0.0022	1 0.0000	2 3207281	2 2585892	2 621389	2 617293	2 134953	2 0	2 0.1937	2 0.1925	2 0.0421	2 0.0000	987295773	987295738	35	0	0	0	0.0000	0.0000	0.0000	0.0000	169862566	169783884	78682	78554	0	0	0.0005	0.0005	0.0000	0.0000	238480599.4021 0.4180 1 111172270.7654 1 1 0.1948 1 2 82337414.7930 2 2 0.1443 2 3 95068247.6803 3 3 0.1666 3	2580782183.7442 4.5231 1 354087558.7412 1 1 0.6206 1 2 185949586.8505 2 2 0.3259 2 3 408707469.1099 3 3 0.7163 3	1257729244.8907 2.2043 1 826213850.9390 1 1 1.4480 1 2 516595464.7852 2 2 0.9054 2 3 557756112.5220 3 3 0.9775 3	549566281.9776 0.9632 1 56322780.0595 1 1 0.0987 1 2 38581703.8356 2 2 0.0676 2 3 87590125.5914 3 3 0.1535 3	2038362737.6058 3.5725 1 1072477967.3984 1 1 1.8796 1 2 236284454.7036 2 2 0.4141 2 3 323314403.5050 3 3 0.5666 3	1612838712.1542 2.8267 1 905470195.5676 1 1 1.5869 1 2 905470195.5676 2 2 1.5869 2 3 976207042.7975 3 3 1.7109 3	3504390258.5214 6.1419 1 714080118.1481 1 1 1.2515 1 2 508630312.0420 2 2 0.8914 2 3 789754851.1510 3 3 1.3841 3	2 2411392458.9841 2 2 4.2263 2 2 1 11845190.1471 2 1 2 1 0.0208 2 1 2 2 6777387.0665 2 2 2 2 0.0119 2 2 2 3 246733038.0008 2 3 2 3 0.4324 2 3	10807358383.5717 8148405114.3303 18.9412 14.2810 1 1270864637.4786 1 1 2.2273 1 2 678781574.5456 2 2 1.1896 2 3 1632430954.9346 3 3 2.8610 3	8148405114.3303 14.2810	1310920193.4667 2.2975 1 617361104.6242 1 1 1.0820 1 2 332080423.1469 2 2 0.5820 2 3 401018909.3010 3 3 0.7028 3	14915530398.7062 26.1412 1 3943851791.6095 1 1 6.9121 1 2 2288122373.7417 2 2 4.0102 2 3 3378671179.1841 3 3 5.9215 3	0.4180 1 0.1948 1 2 0.1443 2 3 0.1666 3	4.5231 1 0.6206 1 2 0.3259 2 3 0.7163 3	2.2043 1 1.4480 1 2 0.9054 2 3 0.9775 3	0.9632 1 0.0987 1 2 0.0676 2 3 0.1535 3	3.5725 1 1.8796 1 2 0.4141 2 3 0.5666 3	2.8267 1 1.5869 1 2 1.5869 2 3 1.7109 3	6.1419 1 1.2515 1 2 0.8914 2 3 1.3841 3	2 4.2263 2 2 1 0.0208 2 1 2 2 0.0119 2 2 2 3 0.4324 2 3	18.9412 1 2.2273 1 2 1.1896 2 3 2.8610 3	14.2810	2.2975 1 1.0820 1 2 0.5820 2 3 0.7028 3	26.1412 1 6.9121 1 2 4.0102 2 3 5.9215 3	4193620895.8984 1 1259557754.3088 1 2 1091419782.4181 2 3 1384914511.9074 3	238480599.4021 1 111172270.7654 1 2 82337414.7930 2 3 95068247.6803 3	19841356821.4123 1 3496687681.3965 1 2 2081446865.4218 2 3 3715283991.5009 3	7.3498 1 2.2075 1 2 1.9128 2 3 2.4272 3	0.4180 1 0.1948 1 2 0.1443 2 3 0.1666 3	34.7743 1 6.1284 1 2 3.6480 2 3 6.5115 3	41227351453.0247 72.2558 2 53.7485 51.9417 2 38.6376 1 9883747465.4786 1 1 17.3224 1 1 12.4524 1 2 5779610891.0782 2 2 10.1295 2 2 7.2816 2 3 8897252333.7776 3 3 15.5935 3 3 11.2095 3	72.2558 2 53.7485 1 17.3224 1 2 10.1295 2 3 15.5935 3	2 53.7485	51.9417 2 38.6376 1 12.4524 1 2 7.2816 2 3 11.2095 3	2 38.6376	1 111172270.7654 1 1 0.1948 1	1 354087558.7412 1 1 0.6206 1	1 826213850.9390 1 1 1.4480 1	1 56322780.0595 1 1 0.0987 1	1 1072477967.3984 1 1 1.8796 1	1 905470195.5676 1 1 1.5869 1	1 714080118.1481 1 1 1.2515 1	2 1 11845190.1471 2 1 2 1 0.0208 2 1	1 1270864637.4786 1 1 2.2273 1	1 617361104.6242 1 1 1.0820 1	1 3943851791.6095 1 1 6.9121 1	1 0.1948 1	1 0.6206 1	1 1.4480 1	1 0.0987 1	1 1.8796 1	1 1.5869 1	1 1.2515 1	2 1 0.0208 2 1	1 2.2273 1	1 1.0820 1	1 6.9121 1	1 1259557754.3088 1	1 111172270.7654 1	1 3496687681.3965 1	1 2.2075 1	1 0.1948 1	1 6.1284 1	1 9883747465.4786 1 1 17.3224 1	1 17.3224 1	1 12.4524 1	2 82337414.7930 2 2 0.1443 2	2 185949586.8505 2 2 0.3259 2	2 516595464.7852 2 2 0.9054 2	2 38581703.8356 2 2 0.0676 2	2 236284454.7036 2 2 0.4141 2	2 905470195.5676 2 2 1.5869 2	2 508630312.0420 2 2 0.8914 2	2 2 6777387.0665 2 2 2 2 0.0119 2 2	2 678781574.5456 2 2 1.1896 2	2 332080423.1469 2 2 0.5820 2	2 2288122373.7417 2 2 4.0102 2	2 0.1443 2	2 0.3259 2	2 0.9054 2	2 0.0676 2	2 0.4141 2	2 1.5869 2	2 0.8914 2	2 2 0.0119 2 2	2 1.1896 2	2 0.5820 2	2 4.0102 2	2 1091419782.4181 2	2 82337414.7930 2	2 2081446865.4218 2	2 1.9128 2	2 0.1443 2	2 3.6480 2	2 5779610891.0782 2 2 10.1295 2	2 10.1295 2	2 7.2816 2	3 95068247.6803 3 3 0.1666 3	3 408707469.1099 3 3 0.7163 3	3 557756112.5220 3 3 0.9775 3	3 87590125.5914 3 3 0.1535 3	3 323314403.5050 3 3 0.5666 3	3 976207042.7975 3 3 1.7109 3	3 789754851.1510 3 3 1.3841 3	2 3 246733038.0008 2 3 2 3 0.4324 2 3	3 1632430954.9346 3 3 2.8610 3	3 401018909.3010 3 3 0.7028 3	3 3378671179.1841 3 3 5.9215 3	3 0.1666 3	3 0.7163 3	3 0.9775 3	3 0.1535 3	3 0.5666 3	3 1.7109 3	3 1.3841 3	2 3 0.4324 2 3	3 2.8610 3	3 0.7028 3	3 5.9215 3	3 1384914511.9074 3	3 95068247.6803 3	3 3715283991.5009 3	3 2.4272 3	3 0.1666 3	3 6.5115 3	3 8897252333.7776 3 3 15.5935 3	3 15.5935 3	3 11.2095 3	787982905	82221707	2441812374	178515570	886731505	987295773	165627481	2 3207281 2	574436577	582254886	1.3810	0.1441	4.2796	0.3129	1.5541	1.7304	0.2903	2 0.0056 2	1.0068	1.0205	4	3	16	5	12	4	4	2 4 2	4	8	1 50.3094 1	2 31.6072 2	3 34.8311 3	0	0 00400000	155952	0 10000000	16384	0 7 000	16384	0 00400140	0 7 8000	0	504	2016	136213	5324689683	0.0000	
taken	461881709	157978697	87361233	70617464.0000	82221707	548	842849.8339	793723774	260511624	149469277	111042347.0000	160848867	570574852	0.8095	1.2353	1.3911	5.6175	1465530888	320624858	2.5685	1.3911	1.8464	0.5619	4745046482	125821532	8.3163	1.3911	5.9782	0.2205	1382263088	29012760	2.4226	1.3911	1.7415	0.0508	5540343708 11.9952	11.9952	189592317	82221707	28978154	28978154	53243553	2628	6824838	2628	6824838	0.3524	0.3524	0.0004	0.0004	0	0	0	0		1 987295773	1 986540232	1 755541	1 755029	1 0	1 0	1 0.0008	1 0.0008	1 0.0000	1 0.0000	1 165627481	1 163545823	1 2081658	1 2081146	1 370082	1 0	1 0.0126	1 0.0126	1 0.0022	1 0.0000	2 3207281	2 2585892	2 621389	2 617293	2 134953	2 0	2 0.1937	2 0.1925	2 0.0421	2 0.0000	987295773	987295738	35	0	0	0	0.0000	0.0000	0.0000	0.0000	169862566	169783884	78682	78554	0	0	0.0005	0.0005	0.0000	0.0000	238480599.4021 0.4180 1 111172270.7654 1 1 0.1948 1 2 82337414.7930 2 2 0.1443 2 3 95068247.6803 3 3 0.1666 3	2580782183.7442 4.5231 1 354087558.7412 1 1 0.6206 1 2 185949586.8505 2 2 0.3259 2 3 408707469.1099 3 3 0.7163 3	1257729244.8907 2.2043 1 826213850.9390 1 1 1.4480 1 2 516595464.7852 2 2 0.9054 2 3 557756112.5220 3 3 0.9775 3	549566281.9776 0.9632 1 56322780.0595 1 1 0.0987 1 2 38581703.8356 2 2 0.0676 2 3 87590125.5914 3 3 0.1535 3	2038362737.6058 3.5725 1 1072477967.3984 1 1 1.8796 1 2 236284454.7036 2 2 0.4141 2 3 323314403.5050 3 3 0.5666 3	1612838712.1542 2.8267 1 905470195.5676 1 1 1.5869 1 2 905470195.5676 2 2 1.5869 2 3 976207042.7975 3 3 1.7109 3	3504390258.5214 6.1419 1 714080118.1481 1 1 1.2515 1 2 508630312.0420 2 2 0.8914 2 3 789754851.1510 3 3 1.3841 3	2 2411392458.9841 2 2 4.2263 2 2 1 11845190.1471 2 1 2 1 0.0208 2 1 2 2 6777387.0665 2 2 2 2 0.0119 2 2 2 3 246733038.0008 2 3 2 3 0.4324 2 3	10807358383.5717 8148405114.3303 18.9412 14.2810 1 1270864637.4786 1 1 2.2273 1 2 678781574.5456 2 2 1.1896 2 3 1632430954.9346 3 3 2.8610 3	8148405114.3303 14.2810	1310920193.4667 2.2975 1 617361104.6242 1 1 1.0820 1 2 332080423.1469 2 2 0.5820 2 3 401018909.3010 3 3 0.7028 3	14915530398.7062 26.1412 1 3943851791.6095 1 1 6.9121 1 2 2288122373.7417 2 2 4.0102 2 3 3378671179.1841 3 3 5.9215 3	0.4180 1 0.1948 1 2 0.1443 2 3 0.1666 3	4.5231 1 0.6206 1 2 0.3259 2 3 0.7163 3	2.2043 1 1.4480 1 2 0.9054 2 3 0.9775 3	0.9632 1 0.0987 1 2 0.0676 2 3 0.1535 3	3.5725 1 1.8796 1 2 0.4141 2 3 0.5666 3	2.8267 1 1.5869 1 2 1.5869 2 3 1.7109 3	6.1419 1 1.2515 1 2 0.8914 2 3 1.3841 3	2 4.2263 2 2 1 0.0208 2 1 2 2 0.0119 2 2 2 3 0.4324 2 3	18.9412 1 2.2273 1 2 1.1896 2 3 2.8610 3	14.2810	2.2975 1 1.0820 1 2 0.5820 2 3 0.7028 3	26.1412 1 6.9121 1 2 4.0102 2 3 5.9215 3	4193620895.8984 1 1259557754.3088 1 2 1091419782.4181 2 3 1384914511.9074 3	238480599.4021 1 111172270.7654 1 2 82337414.7930 2 3 95068247.6803 3	19841356821.4123 1 3496687681.3965 1 2 2081446865.4218 2 3 3715283991.5009 3	7.3498 1 2.2075 1 2 1.9128 2 3 2.4272 3	0.4180 1 0.1948 1 2 0.1443 2 3 0.1666 3	34.7743 1 6.1284 1 2 3.6480 2 3 6.5115 3	41227351453.0247 72.2558 2 53.7485 51.9417 2 38.6376 1 9883747465.4786 1 1 17.3224 1 1 12.4524 1 2 5779610891.0782 2 2 10.1295 2 2 7.2816 2 3 8897252333.7776 3 3 15.5935 3 3 11.2095 3	72.2558 2 53.7485 1 17.3224 1 2 10.1295 2 3 15.5935 3	2 53.7485	51.9417 2 38.6376 1 12.4524 1 2 7.2816 2 3 11.2095 3	2 38.6376	1 111172270.7654 1 1 0.1948 1	1 354087558.7412 1 1 0.6206 1	1 826213850.9390 1 1 1.4480 1	1 56322780.0595 1 1 0.0987 1	1 1072477967.3984 1 1 1.8796 1	1 905470195.5676 1 1 1.5869 1	1 714080118.1481 1 1 1.2515 1	2 1 11845190.1471 2 1 2 1 0.0208 2 1	1 1270864637.4786 1 1 2.2273 1	1 617361104.6242 1 1 1.0820 1	1 3943851791.6095 1 1 6.9121 1	1 0.1948 1	1 0.6206 1	1 1.4480 1	1 0.0987 1	1 1.8796 1	1 1.5869 1	1 1.2515 1	2 1 0.0208 2 1	1 2.2273 1	1 1.0820 1	1 6.9121 1	1 1259557754.3088 1	1 111172270.7654 1	1 3496687681.3965 1	1 2.2075 1	1 0.1948 1	1 6.1284 1	1 9883747465.4786 1 1 17.3224 1	1 17.3224 1	1 12.4524 1	2 82337414.7930 2 2 0.1443 2	2 185949586.8505 2 2 0.3259 2	2 516595464.7852 2 2 0.9054 2	2 38581703.8356 2 2 0.0676 2	2 236284454.7036 2 2 0.4141 2	2 905470195.5676 2 2 1.5869 2	2 508630312.0420 2 2 0.8914 2	2 2 6777387.0665 2 2 2 2 0.0119 2 2	2 678781574.5456 2 2 1.1896 2	2 332080423.1469 2 2 0.5820 2	2 2288122373.7417 2 2 4.0102 2	2 0.1443 2	2 0.3259 2	2 0.9054 2	2 0.0676 2	2 0.4141 2	2 1.5869 2	2 0.8914 2	2 2 0.0119 2 2	2 1.1896 2	2 0.5820 2	2 4.0102 2	2 1091419782.4181 2	2 82337414.7930 2	2 2081446865.4218 2	2 1.9128 2	2 0.1443 2	2 3.6480 2	2 5779610891.0782 2 2 10.1295 2	2 10.1295 2	2 7.2816 2	3 95068247.6803 3 3 0.1666 3	3 408707469.1099 3 3 0.7163 3	3 557756112.5220 3 3 0.9775 3	3 87590125.5914 3 3 0.1535 3	3 323314403.5050 3 3 0.5666 3	3 976207042.7975 3 3 1.7109 3	3 789754851.1510 3 3 1.3841 3	2 3 246733038.0008 2 3 2 3 0.4324 2 3	3 1632430954.9346 3 3 2.8610 3	3 401018909.3010 3 3 0.7028 3	3 3378671179.1841 3 3 5.9215 3	3 0.1666 3	3 0.7163 3	3 0.9775 3	3 0.1535 3	3 0.5666 3	3 1.7109 3	3 1.3841 3	2 3 0.4324 2 3	3 2.8610 3	3 0.7028 3	3 5.9215 3	3 1384914511.9074 3	3 95068247.6803 3	3 3715283991.5009 3	3 2.4272 3	3 0.1666 3	3 6.5115 3	3 8897252333.7776 3 3 15.5935 3	3 15.5935 3	3 11.2095 3	787982905	82221707	2441812374	178515570	886731505	987295773	165627481	2 3207281 2	574436577	582254886	1.3810	0.1441	4.2796	0.3129	1.5541	1.7304	0.2903	2 0.0056 2	1.0068	1.0205	4	3	16	5	12	4	4	2 4 2	4	8	1 50.3094 1	2 31.6072 2	3 34.8311 3	0	0 00400000	155952	0 10000000	16384	0 7 000	16384	0 00400140	0 7 8000	0	504	2016	136213	5324689683	0.0000	461881709	157978697	87361233	70617464.0000	82221707	570	810318.7877	868403491	289097550	171280931	117816619.0000	178001944	561759232	0.8222	1.2162	1.5459	5.6175	1592149553	397800892	2.8342	1.5459	1.8334	0.7081	4914899793	146469264	8.7491	1.5459	5.6597	0.2607	1455575735	31511726	2.5911	1.5459	1.6762	0.0561	5537757780 11.9896	11.9896																			1 1080972122	1 1080054400	1 917722	1 917210	1 0	1 0	1 0.0008	1 0.0008	1 0.0000	1 0.0000	1 168010585	1 165849711	1 2160874	1 2160362	1 372404	1 0	1 0.0129	1 0.0129	1 0.0022	1 0.0000	2 3451000	2 2828368	2 622632	2 618536	2 134999	2 0	2 0.1804	2 0.1792	2 0.0391	2 0.0000	1080972122	1080972087	35	0	0	0	0.0000	0.0000	0.0000	0.0000	172115028	172036156	78872	78744	0	0	0.0005	0.0005	0.0000	0.0000	234795974.3673 0.4180 1 104909959.4996 1 1 0.1868 1 2 90140800.7649 2 2 0.1605 2 3 103129402.2824 3 3 0.1836 3	2540908018.4075 4.5231 1 349119392.8629 1 1 0.6215 1 2 185949586.8422 2 2 0.3310 2 3 405218945.8764 3 3 0.7213 3	1238296802.0222 2.2043 1 813888269.4708 1 1 1.4488 1 2 542669961.0182 2 2 0.9660 2 3 584204433.2729 3 3 1.0400 3	541075253.5825 0.9632 1 55772746.3518 1 1 0.0993 1 2 39678369.2103 2 2 0.0706 2 3 87790897.1142 3 3 0.1563 3	2006869181.1514 3.5725 1 1041064915.0086 1 1 1.8532 1 2 245063078.7731 2 2 0.4362 2 3 331882749.1929 3 3 0.5908 3	1587919679.2144 2.8267 1 860664356.5541 1 1 1.5321 1 2 860664356.5541 2 2 1.5321 2 3 933389884.4860 3 3 1.6615 3	3450245963.0028 6.1419 1 685139113.8057 1 1 1.2196 1 2 515948656.3389 2 2 0.9185 2 3 794609140.2037 3 3 1.4145 3	2 2374135439.2422 2 2 4.2263 2 2 1 12850718.7736 2 1 2 1 0.0229 2 1 2 2 7292395.8850 2 2 2 2 0.0130 2 2 2 3 243422337.5458 2 3 2 3 0.4333 2 3	10640380178.3558 8022508848.7599 18.9412 14.2810 1 1204378290.5937 1 1 2.1439 1 2 696254904.4748 2 2 1.2394 2 3 1639855099.5363 3 3 2.9191 3	8022508848.7599 14.2810	1290665929.1162 2.2975 1 606319265.8331 1 1 1.0793 1 2 340649303.2775 2 2 0.6064 2 3 408698427.3732 3 3 0.7275 3	14685079218.3307 26.1412 1 3810722091.0543 1 1 6.7836 1 2 2309498350.1211 2 2 4.1112 2 3 3390960756.2435 3 3 6.0363 3	0.4180 1 0.1868 1 2 0.1605 2 3 0.1836 3	4.5231 1 0.6215 1 2 0.3310 2 3 0.7213 3	2.2043 1 1.4488 1 2 0.9660 2 3 1.0400 3	0.9632 1 0.0993 1 2 0.0706 2 3 0.1563 3	3.5725 1 1.8532 1 2 0.4362 2 3 0.5908 3	2.8267 1 1.5321 1 2 1.5321 2 3 1.6615 3	6.1419 1 1.2196 1 2 0.9185 2 3 1.4145 3	2 4.2263 2 2 1 0.0229 2 1 2 2 0.0130 2 2 2 3 0.4333 2 3	18.9412 1 2.1439 1 2 1.2394 2 3 2.9191 3	14.2810	2.2975 1 1.0793 1 2 0.6064 2 3 0.7275 3	26.1412 1 6.7836 1 2 4.1112 2 3 6.0363 3	4128827697.6219 1 1209783749.4171 1 2 1046613943.3964 2 3 1338608830.3625 3	234795974.3673 1 104909959.4996 1 2 90140800.7649 2 3 103129402.2824 3	19534799565.3217 1 3378348404.8287 1 2 2142493590.2048 2 3 3758580335.0462 3	7.3498 1 2.1536 1 2 1.8631 2 3 2.3829 3	0.4180 1 0.1868 1 2 0.1605 2 3 0.1836 3	34.7743 1 6.0139 1 2 3.8139 2 3 6.6907 3	40590371636.7929 72.2558 2 53.7485 46.7414 2 34.7692 1 9544829119.8084 1 1 16.9910 1 1 10.9912 1 2 5833809763.2603 2 2 10.3849 2 2 6.7179 2 3 8923162073.1275 3 3 15.8843 3 3 10.2754 3	72.2558 2 53.7485 1 16.9910 1 2 10.3849 2 3 15.8843 3	2 53.7485	46.7414 2 34.7692 1 10.9912 1 2 6.7179 2 3 10.2754 3	2 34.7692	1 104909959.4996 1 1 0.1868 1	1 349119392.8629 1 1 0.6215 1	1 813888269.4708 1 1 1.4488 1	1 55772746.3518 1 1 0.0993 1	1 1041064915.0086 1 1 1.8532 1	1 860664356.5541 1 1 1.5321 1	1 685139113.8057 1 1 1.2196 1	2 1 12850718.7736 2 1 2 1 0.0229 2 1	1 1204378290.5937 1 1 2.1439 1	1 606319265.8331 1 1 1.0793 1	1 3810722091.0543 1 1 6.7836 1	1 0.1868 1	1 0.6215 1	1 1.4488 1	1 0.0993 1	1 1.8532 1	1 1.5321 1	1 1.2196 1	2 1 0.0229 2 1	1 2.1439 1	1 1.0793 1	1 6.7836 1	1 1209783749.4171 1	1 104909959.4996 1	1 3378348404.8287 1	1 2.1536 1	1 0.1868 1	1 6.0139 1	1 9544829119.8084 1 1 16.9910 1	1 16.9910 1	1 10.9912 1	2 90140800.7649 2 2 0.1605 2	2 185949586.8422 2 2 0.3310 2	2 542669961.0182 2 2 0.9660 2	2 39678369.2103 2 2 0.0706 2	2 245063078.7731 2 2 0.4362 2	2 860664356.5541 2 2 1.5321 2	2 515948656.3389 2 2 0.9185 2	2 2 7292395.8850 2 2 2 2 0.0130 2 2	2 696254904.4748 2 2 1.2394 2	2 340649303.2775 2 2 0.6064 2	2 2309498350.1211 2 2 4.1112 2	2 0.1605 2	2 0.3310 2	2 0.9660 2	2 0.0706 2	2 0.4362 2	2 1.5321 2	2 0.9185 2	2 2 0.0130 2 2	2 1.2394 2	2 0.6064 2	2 4.1112 2	2 1046613943.3964 2	2 90140800.7649 2	2 2142493590.2048 2	2 1.8631 2	2 0.1605 2	2 3.8139 2	2 5833809763.2603 2 2 10.3849 2	2 10.3849 2	2 6.7179 2	3 103129402.2824 3 3 0.1836 3	3 405218945.8764 3 3 0.7213 3	3 584204433.2729 3 3 1.0400 3	3 87790897.1142 3 3 0.1563 3	3 331882749.1929 3 3 0.5908 3	3 933389884.4860 3 3 1.6615 3	3 794609140.2037 3 3 1.4145 3	2 3 243422337.5458 2 3 2 3 0.4333 2 3	3 1639855099.5363 3 3 2.9191 3	3 408698427.3732 3 3 0.7275 3	3 3390960756.2435 3 3 6.0363 3	3 0.1836 3	3 0.7213 3	3 1.0400 3	3 0.1563 3	3 0.5908 3	3 1.6615 3	3 1.4145 3	2 3 0.4333 2 3	3 2.9191 3	3 0.7275 3	3 6.0363 3	3 1338608830.3625 3	3 103129402.2824 3	3 3758580335.0462 3	3 2.3829 3	3 0.1836 3	3 6.6907 3	3 8923162073.1275 3 3 15.8843 3	3 15.8843 3	3 10.2754 3	862662622	82221707	2580955723	183464007	920612308	1080972122	168010585	2 3451000 2	589545774	596953697	1.5356	0.1464	4.5944	0.3266	1.6388	1.9243	0.2991	2 0.0061 2	1.0495	1.0627	4	4	17	5	12	4	4	2 4 2	4	8	1 50.2405 1	2 31.4669 2	3 34.7020 3	0	0 00400000	155952	0 10000000	16384	0 7 000	16384	0 00400140	0 7 8000	0	504	2016	137105	5721638863	0.0000	
perfect	461881709	157978697	87361233	70617464.0000	82221707	548	842849.8339	793723774	260511624	149469277	111042347.0000	160848867	570574852	0.8095	1.2353	1.3911	5.6175	1465530888	320624858	2.5685	1.3911	1.8464	0.5619	4745046482	125821532	8.3163	1.3911	5.9782	0.2205	1382263088	29012760	2.4226	1.3911	1.7415	0.0508	5540343708 11.9952	11.9952	189592317	82221707	28978154	28978154	53243553	2628	6824838	2628	6824838	0.3524	0.3524	0.0004	0.0004	0	0	0	0		1 987295773	1 986540232	1 755541	1 755029	1 0	1 0	1 0.0008	1 0.0008	1 0.0000	1 0.0000	1 165627481	1 163545823	1 2081658	1 2081146	1 370082	1 0	1 0.0126	1 0.0126	1 0.0022	1 0.0000	2 3207281	2 2585892	2 621389	2 617293	2 134953	2 0	2 0.1937	2 0.1925	2 0.0421	2 0.0000	987295773	987295738	35	0	0	0	0.0000	0.0000	0.0000	0.0000	169862566	169783884	78682	78554	0	0	0.0005	0.0005	0.0000	0.0000	238480599.4021 0.4180 1 111172270.7654 1 1 0.1948 1 2 82337414.7930 2 2 0.1443 2 3 95068247.6803 3 3 0.1666 3	2580782183.7442 4.5231 1 354087558.7412 1 1 0.6206 1 2 185949586.8505 2 2 0.3259 2 3 408707469.1099 3 3 0.7163 3	1257729244.8907 2.2043 1 826213850.9390 1 1 1.4480 1 2 516595464.7852 2 2 0.9054 2 3 557756112.5220 3 3 0.9775 3	549566281.9776 0.9632 1 56322780.0595 1 1 0.0987 1 2 38581703.8356 2 2 0.0676 2 3 87590125.5914 3 3 0.1535 3	2038362737.6058 3.5725 1 1072477967.3984 1 1 1.8796 1 2 236284454.7036 2 2 0.4141 2 3 323314403.5050 3 3 0.5666 3	1612838712.1542 2.8267 1 905470195.5676 1 1 1.5869 1 2 905470195.5676 2 2 1.5869 2 3 976207042.7975 3 3 1.7109 3	3504390258.5214 6.1419 1 714080118.1481 1 1 1.2515 1 2 508630312.0420 2 2 0.8914 2 3 789754851.1510 3 3 1.3841 3	2 2411392458.9841 2 2 4.2263 2 2 1 11845190.1471 2 1 2 1 0.0208 2 1 2 2 6777387.0665 2 2 2 2 0.0119 2 2 2 3 246733038.0008 2 3 2 3 0.4324 2 3	10807358383.5717 8148405114.3303 18.9412 14.2810 1 1270864637.4786 1 1 2.2273 1 2 678781574.5456 2 2 1.1896 2 3 1632430954.9346 3 3 2.8610 3	8148405114.3303 14.2810	1310920193.4667 2.2975 1 617361104.6242 1 1 1.0820 1 2 332080423.1469 2 2 0.5820 2 3 401018909.3010 3 3 0.7028 3	14915530398.7062 26.1412 1 3943851791.6095 1 1 6.9121 1 2 2288122373.7417 2 2 4.0102 2 3 3378671179.1841 3 3 5.9215 3	0.4180 1 0.1948 1 2 0.1443 2 3 0.1666 3	4.5231 1 0.6206 1 2 0.3259 2 3 0.7163 3	2.2043 1 1.4480 1 2 0.9054 2 3 0.9775 3	0.9632 1 0.0987 1 2 0.0676 2 3 0.1535 3	3.5725 1 1.8796 1 2 0.4141 2 3 0.5666 3	2.8267 1 1.5869 1 2 1.5869 2 3 1.7109 3	6.1419 1 1.2515 1 2 0.8914 2 3 1.3841 3	2 4.2263 2 2 1 0.0208 2 1 2 2 0.0119 2 2 2 3 0.4324 2 3	18.9412 1 2.2273 1 2 1.1896 2 3 2.8610 3	14.2810	2.2975 1 1.0820 1 2 0.5820 2 3 0.7028 3	26.1412 1 6.9121 1 2 4.0102 2 3 5.9215 3	4193620895.8984 1 1259557754.3088 1 2 1091419782.4181 2 3 1384914511.9074 3	238480599.4021 1 111172270.7654 1 2 82337414.7930 2 3 95068247.6803 3	19841356821.4123 1 3496687681.3965 1 2 2081446865.4218 2 3 3715283991.5009 3	7.3498 1 2.2075 1 2 1.9128 2 3 2.4272 3	0.4180 1 0.1948 1 2 0.1443 2 3 0.1666 3	34.7743 1 6.1284 1 2 3.6480 2 3 6.5115 3	41227351453.0247 72.2558 2 53.7485 51.9417 2 38.6376 1 9883747465.4786 1 1 17.3224 1 1 12.4524 1 2 5779610891.0782 2 2 10.1295 2 2 7.2816 2 3 8897252333.7776 3 3 15.5935 3 3 11.2095 3	72.2558 2 53.7485 1 17.3224 1 2 10.1295 2 3 15.5935 3	2 53.7485	51.9417 2 38.6376 1 12.4524 1 2 7.2816 2 3 11.2095 3	2 38.6376	1 111172270.7654 1 1 0.1948 1	1 354087558.7412 1 1 0.6206 1	1 826213850.9390 1 1 1.4480 1	1 56322780.0595 1 1 0.0987 1	1 1072477967.3984 1 1 1.8796 1	1 905470195.5676 1 1 1.5869 1	1 714080118.1481 1 1 1.2515 1	2 1 11845190.1471 2 1 2 1 0.0208 2 1	1 1270864637.4786 1 1 2.2273 1	1 617361104.6242 1 1 1.0820 1	1 3943851791.6095 1 1 6.9121 1	1 0.1948 1	1 0.6206 1	1 1.4480 1	1 0.0987 1	1 1.8796 1	1 1.5869 1	1 1.2515 1	2 1 0.0208 2 1	1 2.2273 1	1 1.0820 1	1 6.9121 1	1 1259557754.3088 1	1 111172270.7654 1	1 3496687681.3965 1	1 2.2075 1	1 0.1948 1	1 6.1284 1	1 9883747465.4786 1 1 17.3224 1	1 17.3224 1	1 12.4524 1	2 82337414.7930 2 2 0.1443 2	2 185949586.8505 2 2 0.3259 2	2 516595464.7852 2 2 0.9054 2	2 38581703.8356 2 2 0.0676 2	2 236284454.7036 2 2 0.4141 2	2 905470195.5676 2 2 1.5869 2	2 508630312.0420 2 2 0.8914 2	2 2 6777387.0665 2 2 2 2 0.0119 2 2	2 678781574.5456 2 2 1.1896 2	2 332080423.1469 2 2 0.5820 2	2 2288122373.7417 2 2 4.0102 2	2 0.1443 2	2 0.3259 2	2 0.9054 2	2 0.0676 2	2 0.4141 2	2 1.5869 2	2 0.8914 2	2 2 0.0119 2 2	2 1.1896 2	2 0.5820 2	2 4.0102 2	2 1091419782.4181 2	2 82337414.7930 2	2 2081446865.4218 2	2 1.9128 2	2 0.1443 2	2 3.6480 2	2 5779610891.0782 2 2 10.1295 2	2 10.1295 2	2 7.2816 2	3 95068247.6803 3 3 0.1666 3	3 408707469.1099 3 3 0.7163 3	3 557756112.5220 3 3 0.9775 3	3 87590125.5914 3 3 0.1535 3	3 323314403.5050 3 3 0.5666 3	3 976207042.7975 3 3 1.7109 3	3 789754851.1510 3 3 1.3841 3	2 3 246733038.0008 2 3 2 3 0.4324 2 3	3 1632430954.9346 3 3 2.8610 3	3 401018909.3010 3 3 0.7028 3	3 3378671179.1841 3 3 5.9215 3	3 0.1666 3	3 0.7163 3	3 0.9775 3	3 0.1535 3	3 0.5666 3	3 1.7109 3	3 1.3841 3	2 3 0.4324 2 3	3 2.8610 3	3 0.7028 3	3 5.9215 3	3 1384914511.9074 3	3 95068247.6803 3	3 3715283991.5009 3	3 2.4272 3	3 0.1666 3	3 6.5115 3	3 8897252333.7776 3 3 15.5935 3	3 15.5935 3	3 11.2095 3	787982905	82221707	2441812374	178515570	886731505	987295773	165627481	2 3207281 2	574436577	582254886	1.3810	0.1441	4.2796	0.3129	1.5541	1.7304	0.2903	2 0.0056 2	1.0068	1.0205	4	3	16	5	12	4	4	2 4 2	4	8	1 50.3094 1	2 31.6072 2	3 34.8311 3	0	0 00400000	155952	0 10000000	16384	0 7 000	16384	0 00400140	0 7 8000	0	504	2016	136213	5324689683	0.0000	461881709	157978697	87361233	70617464.0000	82221707	570	810318.7877	868403491	289097550	171280931	117816619.0000	178001944	561759232	0.8222	1.2162	1.5459	5.6175	1592149553	397800892	2.8342	1.5459	1.8334	0.7081	4914899793	146469264	8.7491	1.5459	5.6597	0.2607	1455575735	31511726	2.5911	1.5459	1.6762	0.0561	5537757780 11.9896	11.9896																			1 1080972122	1 1080054400	1 917722	1 917210	1 0	1 0	1 0.0008	1 0.0008	1 0.0000	1 0.0000	1 168010585	1 165849711	1 2160874	1 2160362	1 372404	1 0	1 0.0129	1 0.0129	1 0.0022	1 0.0000	2 3451000	2 2828368	2 622632	2 618536	2 134999	2 0	2 0.1804	2 0.1792	2 0.0391	2 0.0000	1080972122	1080972087	35	0	0	0	0.0000	0.0000	0.0000	0.0000	172115028	172036156	78872	78744	0	0	0.0005	0.0005	0.0000	0.0000	234795974.3673 0.4180 1 104909959.4996 1 1 0.1868 1 2 90140800.7649 2 2 0.1605 2 3 103129402.2824 3 3 0.1836 3	2540908018.4075 4.5231 1 349119392.8629 1 1 0.6215 1 2 185949586.8422 2 2 0.3310 2 3 405218945.8764 3 3 0.7213 3	1238296802.0222 2.2043 1 813888269.4708 1 1 1.4488 1 2 542669961.0182 2 2 0.9660 2 3 584204433.2729 3 3 1.0400 3	541075253.5825 0.9632 1 55772746.3518 1 1 0.0993 1 2 39678369.2103 2 2 0.0706 2 3 87790897.1142 3 3 0.1563 3	2006869181.1514 3.5725 1 1041064915.0086 1 1 1.8532 1 2 245063078.7731 2 2 0.4362 2 3 331882749.1929 3 3 0.5908 3	1587919679.2144 2.8267 1 860664356.5541 1 1 1.5321 1 2 860664356.5541 2 2 1.5321 2 3 933389884.4860 3 3 1.6615 3	3450245963.0028 6.1419 1 685139113.8057 1 1 1.2196 1 2 515948656.3389 2 2 0.9185 2 3 794609140.2037 3 3 1.4145 3	2 2374135439.2422 2 2 4.2263 2 2 1 12850718.7736 2 1 2 1 0.0229 2 1 2 2 7292395.8850 2 2 2 2 0.0130 2 2 2 3 243422337.5458 2 3 2 3 0.4333 2 3	10640380178.3558 8022508848.7599 18.9412 14.2810 1 1204378290.5937 1 1 2.1439 1 2 696254904.4748 2 2 1.2394 2 3 1639855099.5363 3 3 2.9191 3	8022508848.7599 14.2810	1290665929.1162 2.2975 1 606319265.8331 1 1 1.0793 1 2 340649303.2775 2 2 0.6064 2 3 408698427.3732 3 3 0.7275 3	14685079218.3307 26.1412 1 3810722091.0543 1 1 6.7836 1 2 2309498350.1211 2 2 4.1112 2 3 3390960756.2435 3 3 6.0363 3	0.4180 1 0.1868 1 2 0.1605 2 3 0.1836 3	4.5231 1 0.6215 1 2 0.3310 2 3 0.7213 3	2.2043 1 1.4488 1 2 0.9660 2 3 1.0400 3	0.9632 1 0.0993 1 2 0.0706 2 3 0.1563 3	3.5725 1 1.8532 1 2 0.4362 2 3 0.5908 3	2.8267 1 1.5321 1 2 1.5321 2 3 1.6615 3	6.1419 1 1.2196 1 2 0.9185 2 3 1.4145 3	2 4.2263 2 2 1 0.0229 2 1 2 2 0.0130 2 2 2 3 0.4333 2 3	18.9412 1 2.1439 1 2 1.2394 2 3 2.9191 3	14.2810	2.2975 1 1.0793 1 2 0.6064 2 3 0.7275 3	26.1412 1 6.7836 1 2 4.1112 2 3 6.0363 3	4128827697.6219 1 1209783749.4171 1 2 1046613943.3964 2 3 1338608830.3625 3	234795974.3673 1 104909959.4996 1 2 90140800.7649 2 3 103129402.2824 3	19534799565.3217 1 3378348404.8287 1 2 2142493590.2048 2 3 3758580335.0462 3	7.3498 1 2.1536 1 2 1.8631 2 3 2.3829 3	0.4180 1 0.1868 1 2 0.1605 2 3 0.1836 3	34.7743 1 6.0139 1 2 3.8139 2 3 6.6907 3	40590371636.7929 72.2558 2 53.7485 46.7414 2 34.7692 1 9544829119.8084 1 1 16.9910 1 1 10.9912 1 2 5833809763.2603 2 2 10.3849 2 2 6.7179 2 3 8923162073.1275 3 3 15.8843 3 3 10.2754 3	72.2558 2 53.7485 1 16.9910 1 2 10.3849 2 3 15.8843 3	2 53.7485	46.7414 2 34.7692 1 10.9912 1 2 6.7179 2 3 10.2754 3	2 34.7692	1 104909959.4996 1 1 0.1868 1	1 349119392.8629 1 1 0.6215 1	1 813888269.4708 1 1 1.4488 1	1 55772746.3518 1 1 0.0993 1	1 1041064915.0086 1 1 1.8532 1	1 860664356.5541 1 1 1.5321 1	1 685139113.8057 1 1 1.2196 1	2 1 12850718.7736 2 1 2 1 0.0229 2 1	1 1204378290.5937 1 1 2.1439 1	1 606319265.8331 1 1 1.0793 1	1 3810722091.0543 1 1 6.7836 1	1 0.1868 1	1 0.6215 1	1 1.4488 1	1 0.0993 1	1 1.8532 1	1 1.5321 1	1 1.2196 1	2 1 0.0229 2 1	1 2.1439 1	1 1.0793 1	1 6.7836 1	1 1209783749.4171 1	1 104909959.4996 1	1 3378348404.8287 1	1 2.1536 1	1 0.1868 1	1 6.0139 1	1 9544829119.8084 1 1 16.9910 1	1 16.9910 1	1 10.9912 1	2 90140800.7649 2 2 0.1605 2	2 185949586.8422 2 2 0.3310 2	2 542669961.0182 2 2 0.9660 2	2 39678369.2103 2 2 0.0706 2	2 245063078.7731 2 2 0.4362 2	2 860664356.5541 2 2 1.5321 2	2 515948656.3389 2 2 0.9185 2	2 2 7292395.8850 2 2 2 2 0.0130 2 2	2 696254904.4748 2 2 1.2394 2	2 340649303.2775 2 2 0.6064 2	2 2309498350.1211 2 2 4.1112 2	2 0.1605 2	2 0.3310 2	2 0.9660 2	2 0.0706 2	2 0.4362 2	2 1.5321 2	2 0.9185 2	2 2 0.0130 2 2	2 1.2394 2	2 0.6064 2	2 4.1112 2	2 1046613943.3964 2	2 90140800.7649 2	2 2142493590.2048 2	2 1.8631 2	2 0.1605 2	2 3.8139 2	2 5833809763.2603 2 2 10.3849 2	2 10.3849 2	2 6.7179 2	3 103129402.2824 3 3 0.1836 3	3 405218945.8764 3 3 0.7213 3	3 584204433.2729 3 3 1.0400 3	3 87790897.1142 3 3 0.1563 3	3 331882749.1929 3 3 0.5908 3	3 933389884.4860 3 3 1.6615 3	3 794609140.2037 3 3 1.4145 3	2 3 243422337.5458 2 3 2 3 0.4333 2 3	3 1639855099.5363 3 3 2.9191 3	3 408698427.3732 3 3 0.7275 3	3 3390960756.2435 3 3 6.0363 3	3 0.1836 3	3 0.7213 3	3 1.0400 3	3 0.1563 3	3 0.5908 3	3 1.6615 3	3 1.4145 3	2 3 0.4333 2 3	3 2.9191 3	3 0.7275 3	3 6.0363 3	3 1338608830.3625 3	3 103129402.2824 3	3 3758580335.0462 3	3 2.3829 3	3 0.1836 3	3 6.6907 3	3 8923162073.1275 3 3 15.8843 3	3 15.8843 3	3 10.2754 3	862662622	82221707	2580955723	183464007	920612308	1080972122	168010585	2 3451000 2	589545774	596953697	1.5356	0.1464	4.5944	0.3266	1.6388	1.9243	0.2991	2 0.0061 2	1.0495	1.0627	4	4	17	5	12	4	4	2 4 2	4	8	1 50.2405 1	2 31.4669 2	3 34.7020 3	0	0 00400000	155952	0 10000000	16384	0 7 000	16384	0 00400140	0 7 8000	0	504	2016	137105	5721638863	0.0000	461881709	157978697	87361233	70617464.0000	82221707	349	1323443.2923	461881708	157978697	87361233	70617464.0000	82221707	309437175	1.4927	0.6699	1.4927	5.6175	1224653920	306043060	3.9577	1.4927	2.6514	0.9890	4588618446	213723160	14.8289	1.4927	9.9346	0.6907	1357487276	25368169	4.3870	1.4927	2.9390	0.0820	6565966109 14.2157	14.2157																			1 552901437	1 552354187	1 547250	1 546738	1 0	1 0	1 0.0010	1 0.0010	1 0.0000	1 0.0000	1 153903558	1 152197713	1 1705845	1 1705333	1 364664	1 0	1 0.0111	1 0.0111	1 0.0024	1 0.0000	2 2617759	2 2092290	2 525469	2 521373	2 132743	2 0	2 0.2007	2 0.1992	2 0.0507	2 0.0000	552901437	552901402	35	0	0	0	0.0000	0.0000	0.0000	0.0000	157978697	157902557	76140	76012	0	0	0.0005	0.0005	0.0000	0.0000	129334059.4361 0.4180 1 73072004.4796 1 1 0.2361 1 2 48262651.4102 2 2 0.1560 2 3 53888857.0592 3 3 0.1742 3	1399623449.4963 4.5231 1 0.0000 1 1 0.0000 1 2 0.0000 2 2 0.0000 2 3 139962344.7340 3 3 0.4523 3	682098377.2799 2.2043 1 480213068.1185 1 1 1.5519 1 2 365203006.3218 2 2 1.1802 2 3 384538705.8944 3 3 1.2427 3	298043693.5810 0.9632 1 50681608.0763 1 1 0.1638 1 2 34501814.7500 2 2 0.1115 2 3 58822445.2447 3 3 0.1901 3	1105455673.4424 3.5725 1 581162415.4427 1 1 1.8781 1 2 174424354.1343 2 2 0.5637 2 3 221241424.6377 3 3 0.7150 3	874683222.1280 2.8267 1 495213095.3029 1 1 1.6004 1 2 495213095.3029 2 2 1.6004 2 3 533160107.9578 3 3 1.7230 3	1900519462.1376 6.1419 1 632426667.8726 1 1 2.0438 1 2 472626971.4227 2 2 1.5274 2 3 601401049.3481 3 3 1.9435 3	2 1307759134.8435 2 2 4.2263 2 2 1 9439540.5286 2 1 2 1 0.0305 2 1 2 2 5531653.1321 2 2 2 2 0.0179 2 2 2 3 135365120.1775 2 3 2 3 0.4375 2 3	5861103824.0849 4419086208.3377 18.9412 14.2810 1 945290538.0987 1 1 3.0549 1 2 534296817.4808 2 2 1.7267 2 3 1025878153.3358 3 3 3.3153 3	4419086208.3377 14.2810	710945182.3165 2.2975 1 461057454.3536 1 1 1.4900 1 2 263394009.4310 2 2 0.8512 2 3 287568146.3263 3 3 0.9293 3	8089069423.1694 26.1412 1 2525388197.2733 1 1 8.1612 1 2 1594907908.3955 2 2 5.1542 2 3 2147554650.5274 3 3 6.9402 3	0.4180 1 0.2361 1 2 0.1560 2 3 0.1742 3	4.5231 1 0.0000 1 2 0.0000 2 3 0.4523 3	2.2043 1 1.5519 1 2 1.1802 2 3 1.2427 3	0.9632 1 0.1638 1 2 0.1115 2 3 0.1901 3	3.5725 1 1.8781 1 2 0.5637 2 3 0.7150 3	2.8267 1 1.6004 1 2 1.6004 2 3 1.7230 3	6.1419 1 2.0438 1 2 1.5274 2 3 1.9435 3	2 4.2263 2 2 1 0.0305 2 1 2 2 0.0179 2 2 2 3 0.4375 2 3	18.9412 1 3.0549 1 2 1.7267 2 3 3.3153 3	14.2810	2.2975 1 1.4900 1 2 0.8512 2 3 0.9293 3	26.1412 1 8.1612 1 2 5.1542 2 3 6.9402 3	2274306671.6243 1 495213095.3029 1 2 495213095.3029 2 3 673122452.6919 3	129334059.4361 1 73072004.4796 1 2 48262651.4102 2 3 53888857.0592 3	10760469674.2433 1 2579108877.0483 1 2 1675554272.5385 2 3 2493573620.3268 3	7.3498 1 1.6004 1 2 1.6004 2 3 2.1753 3	0.4180 1 0.2361 1 2 0.1560 2 3 0.1742 3	34.7743 1 8.3348 1 2 5.4148 2 3 8.0584 3	22358635501.9154 72.2558 2 53.7485 48.4077 2 36.0088 1 6253944589.5468 1 1 20.2107 1 1 13.5401 1 2 3988362281.7813 2 2 12.8891 2 2 8.6350 2 3 5589381005.2430 3 3 18.0631 3 3 12.1013 3	72.2558 2 53.7485 1 20.2107 1 2 12.8891 2 3 18.0631 3	2 53.7485	48.4077 2 36.0088 1 13.5401 1 2 8.6350 2 3 12.1013 3	2 36.0088	1 73072004.4796 1 1 0.2361 1	1 0.0000 1 1 0.0000 1	1 480213068.1185 1 1 1.5519 1	1 50681608.0763 1 1 0.1638 1	1 581162415.4427 1 1 1.8781 1	1 495213095.3029 1 1 1.6004 1	1 632426667.8726 1 1 2.0438 1	2 1 9439540.5286 2 1 2 1 0.0305 2 1	1 945290538.0987 1 1 3.0549 1	1 461057454.3536 1 1 1.4900 1	1 2525388197.2733 1 1 8.1612 1	1 0.2361 1	1 0.0000 1	1 1.5519 1	1 0.1638 1	1 1.8781 1	1 1.6004 1	1 2.0438 1	2 1 0.0305 2 1	1 3.0549 1	1 1.4900 1	1 8.1612 1	1 495213095.3029 1	1 73072004.4796 1	1 2579108877.0483 1	1 1.6004 1	1 0.2361 1	1 8.3348 1	1 6253944589.5468 1 1 20.2107 1	1 20.2107 1	1 13.5401 1	2 48262651.4102 2 2 0.1560 2	2 0.0000 2 2 0.0000 2	2 365203006.3218 2 2 1.1802 2	2 34501814.7500 2 2 0.1115 2	2 174424354.1343 2 2 0.5637 2	2 495213095.3029 2 2 1.6004 2	2 472626971.4227 2 2 1.5274 2	2 2 5531653.1321 2 2 2 2 0.0179 2 2	2 534296817.4808 2 2 1.7267 2	2 263394009.4310 2 2 0.8512 2	2 1594907908.3955 2 2 5.1542 2	2 0.1560 2	2 0.0000 2	2 1.1802 2	2 0.1115 2	2 0.5637 2	2 1.6004 2	2 1.5274 2	2 2 0.0179 2 2	2 1.7267 2	2 0.8512 2	2 5.1542 2	2 495213095.3029 2	2 48262651.4102 2	2 1675554272.5385 2	2 1.6004 2	2 0.1560 2	2 5.4148 2	2 3988362281.7813 2 2 12.8891 2	2 12.8891 2	2 8.6350 2	3 53888857.0592 3 3 0.1742 3	3 139962344.7340 3 3 0.4523 3	3 384538705.8944 3 3 1.2427 3	3 58822445.2447 3 3 0.1901 3	3 221241424.6377 3 3 0.7150 3	3 533160107.9578 3 3 1.7230 3	3 601401049.3481 3 3 1.9435 3	2 3 135365120.1775 2 3 2 3 0.4375 2 3	3 1025878153.3358 3 3 3.3153 3	3 287568146.3263 3 3 0.9293 3	3 2147554650.5274 3 3 6.9402 3	3 0.1742 3	3 0.4523 3	3 1.2427 3	3 0.1901 3	3 0.7150 3	3 1.7230 3	3 1.9435 3	2 3 0.4375 2 3	3 3.3153 3	3 0.9293 3	3 6.9402 3	3 673122452.6919 3	3 53888857.0592 3	3 2493573620.3268 3	3 2.1753 3	3 0.1742 3	3 8.0584 3	3 5589381005.2430 3 3 18.0631 3	3 18.0631 3	3 12.1013 3	461881690	0	1672471020	162053836	651336961	552901437	153903558	2 2617759 2	451459518	467021216	1.4927	0.0000	5.4049	0.5237	2.1049	1.7868	0.4974	2 0.0085 2	1.4590	1.5093	4	0	17	5	12	4	4	2 4 2	4	8	1 47.8179 1	2 31.2347 2	3 34.7363 3	0	0 00400000	155952	0 10000000	16384	0 7 000	16384	0 00400140	0 7 8000	0	504	2016	508	3485248962	0.0000	
bimod	461881709	157978697	87361233	70617464.0000	82221707	548	842849.8339	793723774	260511624	149469277	111042347.0000	160848867	570574852	0.8095	1.2353	1.3911	5.6175	1465530888	320624858	2.5685	1.3911	1.8464	0.5619	4745046482	125821532	8.3163	1.3911	5.9782	0.2205	1382263088	29012760	2.4226	1.3911	1.7415	0.0508	5540343708 11.9952	11.9952	189592317	82221707	28978154	28978154	53243553	2628	6824838	2628	6824838	0.3524	0.3524	0.0004	0.0004	0	0	0	0		1 987295773	1 986540232	1 755541	1 755029	1 0	1 0	1 0.0008	1 0.0008	1 0.0000	1 0.0000	1 165627481	1 163545823	1 2081658	1 2081146	1 370082	1 0	1 0.0126	1 0.0126	1 0.0022	1 0.0000	2 3207281	2 2585892	2 621389	2 617293	2 134953	2 0	2 0.1937	2 0.1925	2 0.0421	2 0.0000	987295773	987295738	35	0	0	0	0.0000	0.0000	0.0000	0.0000	169862566	169783884	78682	78554	0	0	0.0005	0.0005	0.0000	0.0000	238480599.4021 0.4180 1 111172270.7654 1 1 0.1948 1 2 82337414.7930 2 2 0.1443 2 3 95068247.6803 3 3 0.1666 3	2580782183.7442 4.5231 1 354087558.7412 1 1 0.6206 1 2 185949586.8505 2 2 0.3259 2 3 408707469.1099 3 3 0.7163 3	1257729244.8907 2.2043 1 826213850.9390 1 1 1.4480 1 2 516595464.7852 2 2 0.9054 2 3 557756112.5220 3 3 0.9775 3	549566281.9776 0.9632 1 56322780.0595 1 1 0.0987 1 2 38581703.8356 2 2 0.0676 2 3 87590125.5914 3 3 0.1535 3	2038362737.6058 3.5725 1 1072477967.3984 1 1 1.8796 1 2 236284454.7036 2 2 0.4141 2 3 323314403.5050 3 3 0.5666 3	1612838712.1542 2.8267 1 905470195.5676 1 1 1.5869 1 2 905470195.5676 2 2 1.5869 2 3 976207042.7975 3 3 1.7109 3	3504390258.5214 6.1419 1 714080118.1481 1 1 1.2515 1 2 508630312.0420 2 2 0.8914 2 3 789754851.1510 3 3 1.3841 3	2 2411392458.9841 2 2 4.2263 2 2 1 11845190.1471 2 1 2 1 0.0208 2 1 2 2 6777387.0665 2 2 2 2 0.0119 2 2 2 3 246733038.0008 2 3 2 3 0.4324 2 3	10807358383.5717 8148405114.3303 18.9412 14.2810 1 1270864637.4786 1 1 2.2273 1 2 678781574.5456 2 2 1.1896 2 3 1632430954.9346 3 3 2.8610 3	8148405114.3303 14.2810	1310920193.4667 2.2975 1 617361104.6242 1 1 1.0820 1 2 332080423.1469 2 2 0.5820 2 3 401018909.3010 3 3 0.7028 3	14915530398.7062 26.1412 1 3943851791.6095 1 1 6.9121 1 2 2288122373.7417 2 2 4.0102 2 3 3378671179.1841 3 3 5.9215 3	0.4180 1 0.1948 1 2 0.1443 2 3 0.1666 3	4.5231 1 0.6206 1 2 0.3259 2 3 0.7163 3	2.2043 1 1.4480 1 2 0.9054 2 3 0.9775 3	0.9632 1 0.0987 1 2 0.0676 2 3 0.1535 3	3.5725 1 1.8796 1 2 0.4141 2 3 0.5666 3	2.8267 1 1.5869 1 2 1.5869 2 3 1.7109 3	6.1419 1 1.2515 1 2 0.8914 2 3 1.3841 3	2 4.2263 2 2 1 0.0208 2 1 2 2 0.0119 2 2 2 3 0.4324 2 3	18.9412 1 2.2273 1 2 1.1896 2 3 2.8610 3	14.2810	2.2975 1 1.0820 1 2 0.5820 2 3 0.7028 3	26.1412 1 6.9121 1 2 4.0102 2 3 5.9215 3	4193620895.8984 1 1259557754.3088 1 2 1091419782.4181 2 3 1384914511.9074 3	238480599.4021 1 111172270.7654 1 2 82337414.7930 2 3 95068247.6803 3	19841356821.4123 1 3496687681.3965 1 2 2081446865.4218 2 3 3715283991.5009 3	7.3498 1 2.2075 1 2 1.9128 2 3 2.4272 3	0.4180 1 0.1948 1 2 0.1443 2 3 0.1666 3	34.7743 1 6.1284 1 2 3.6480 2 3 6.5115 3	41227351453.0247 72.2558 2 53.7485 51.9417 2 38.6376 1 9883747465.4786 1 1 17.3224 1 1 12.4524 1 2 5779610891.0782 2 2 10.1295 2 2 7.2816 2 3 8897252333.7776 3 3 15.5935 3 3 11.2095 3	72.2558 2 53.7485 1 17.3224 1 2 10.1295 2 3 15.5935 3	2 53.7485	51.9417 2 38.6376 1 12.4524 1 2 7.2816 2 3 11.2095 3	2 38.6376	1 111172270.7654 1 1 0.1948 1	1 354087558.7412 1 1 0.6206 1	1 826213850.9390 1 1 1.4480 1	1 56322780.0595 1 1 0.0987 1	1 1072477967.3984 1 1 1.8796 1	1 905470195.5676 1 1 1.5869 1	1 714080118.1481 1 1 1.2515 1	2 1 11845190.1471 2 1 2 1 0.0208 2 1	1 1270864637.4786 1 1 2.2273 1	1 617361104.6242 1 1 1.0820 1	1 3943851791.6095 1 1 6.9121 1	1 0.1948 1	1 0.6206 1	1 1.4480 1	1 0.0987 1	1 1.8796 1	1 1.5869 1	1 1.2515 1	2 1 0.0208 2 1	1 2.2273 1	1 1.0820 1	1 6.9121 1	1 1259557754.3088 1	1 111172270.7654 1	1 3496687681.3965 1	1 2.2075 1	1 0.1948 1	1 6.1284 1	1 9883747465.4786 1 1 17.3224 1	1 17.3224 1	1 12.4524 1	2 82337414.7930 2 2 0.1443 2	2 185949586.8505 2 2 0.3259 2	2 516595464.7852 2 2 0.9054 2	2 38581703.8356 2 2 0.0676 2	2 236284454.7036 2 2 0.4141 2	2 905470195.5676 2 2 1.5869 2	2 508630312.0420 2 2 0.8914 2	2 2 6777387.0665 2 2 2 2 0.0119 2 2	2 678781574.5456 2 2 1.1896 2	2 332080423.1469 2 2 0.5820 2	2 2288122373.7417 2 2 4.0102 2	2 0.1443 2	2 0.3259 2	2 0.9054 2	2 0.0676 2	2 0.4141 2	2 1.5869 2	2 0.8914 2	2 2 0.0119 2 2	2 1.1896 2	2 0.5820 2	2 4.0102 2	2 1091419782.4181 2	2 82337414.7930 2	2 2081446865.4218 2	2 1.9128 2	2 0.1443 2	2 3.6480 2	2 5779610891.0782 2 2 10.1295 2	2 10.1295 2	2 7.2816 2	3 95068247.6803 3 3 0.1666 3	3 408707469.1099 3 3 0.7163 3	3 557756112.5220 3 3 0.9775 3	3 87590125.5914 3 3 0.1535 3	3 323314403.5050 3 3 0.5666 3	3 976207042.7975 3 3 1.7109 3	3 789754851.1510 3 3 1.3841 3	2 3 246733038.0008 2 3 2 3 0.4324 2 3	3 1632430954.9346 3 3 2.8610 3	3 401018909.3010 3 3 0.7028 3	3 3378671179.1841 3 3 5.9215 3	3 0.1666 3	3 0.7163 3	3 0.9775 3	3 0.1535 3	3 0.5666 3	3 1.7109 3	3 1.3841 3	2 3 0.4324 2 3	3 2.8610 3	3 0.7028 3	3 5.9215 3	3 1384914511.9074 3	3 95068247.6803 3	3 3715283991.5009 3	3 2.4272 3	3 0.1666 3	3 6.5115 3	3 8897252333.7776 3 3 15.5935 3	3 15.5935 3	3 11.2095 3	787982905	82221707	2441812374	178515570	886731505	987295773	165627481	2 3207281 2	574436577	582254886	1.3810	0.1441	4.2796	0.3129	1.5541	1.7304	0.2903	2 0.0056 2	1.0068	1.0205	4	3	16	5	12	4	4	2 4 2	4	8	1 50.3094 1	2 31.6072 2	3 34.8311 3	0	0 00400000	155952	0 10000000	16384	0 7 000	16384	0 00400140	0 7 8000	0	504	2016	136213	5324689683	0.0000	461881709	157978697	87361233	70617464.0000	82221707	570	810318.7877	868403491	289097550	171280931	117816619.0000	178001944	561759232	0.8222	1.2162	1.5459	5.6175	1592149553	397800892	2.8342	1.5459	1.8334	0.7081	4914899793	146469264	8.7491	1.5459	5.6597	0.2607	1455575735	31511726	2.5911	1.5459	1.6762	0.0561	5537757780 11.9896	11.9896																			1 1080972122	1 1080054400	1 917722	1 917210	1 0	1 0	1 0.0008	1 0.0008	1 0.0000	1 0.0000	1 168010585	1 165849711	1 2160874	1 2160362	1 372404	1 0	1 0.0129	1 0.0129	1 0.0022	1 0.0000	2 3451000	2 2828368	2 622632	2 618536	2 134999	2 0	2 0.1804	2 0.1792	2 0.0391	2 0.0000	1080972122	1080972087	35	0	0	0	0.0000	0.0000	0.0000	0.0000	172115028	172036156	78872	78744	0	0	0.0005	0.0005	0.0000	0.0000	234795974.3673 0.4180 1 104909959.4996 1 1 0.1868 1 2 90140800.7649 2 2 0.1605 2 3 103129402.2824 3 3 0.1836 3	2540908018.4075 4.5231 1 349119392.8629 1 1 0.6215 1 2 185949586.8422 2 2 0.3310 2 3 405218945.8764 3 3 0.7213 3	1238296802.0222 2.2043 1 813888269.4708 1 1 1.4488 1 2 542669961.0182 2 2 0.9660 2 3 584204433.2729 3 3 1.0400 3	541075253.5825 0.9632 1 55772746.3518 1 1 0.0993 1 2 39678369.2103 2 2 0.0706 2 3 87790897.1142 3 3 0.1563 3	2006869181.1514 3.5725 1 1041064915.0086 1 1 1.8532 1 2 245063078.7731 2 2 0.4362 2 3 331882749.1929 3 3 0.5908 3	1587919679.2144 2.8267 1 860664356.5541 1 1 1.5321 1 2 860664356.5541 2 2 1.5321 2 3 933389884.4860 3 3 1.6615 3	3450245963.0028 6.1419 1 685139113.8057 1 1 1.2196 1 2 515948656.3389 2 2 0.9185 2 3 794609140.2037 3 3 1.4145 3	2 2374135439.2422 2 2 4.2263 2 2 1 12850718.7736 2 1 2 1 0.0229 2 1 2 2 7292395.8850 2 2 2 2 0.0130 2 2 2 3 243422337.5458 2 3 2 3 0.4333 2 3	10640380178.3558 8022508848.7599 18.9412 14.2810 1 1204378290.5937 1 1 2.1439 1 2 696254904.4748 2 2 1.2394 2 3 1639855099.5363 3 3 2.9191 3	8022508848.7599 14.2810	1290665929.1162 2.2975 1 606319265.8331 1 1 1.0793 1 2 340649303.2775 2 2 0.6064 2 3 408698427.3732 3 3 0.7275 3	14685079218.3307 26.1412 1 3810722091.0543 1 1 6.7836 1 2 2309498350.1211 2 2 4.1112 2 3 3390960756.2435 3 3 6.0363 3	0.4180 1 0.1868 1 2 0.1605 2 3 0.1836 3	4.5231 1 0.6215 1 2 0.3310 2 3 0.7213 3	2.2043 1 1.4488 1 2 0.9660 2 3 1.0400 3	0.9632 1 0.0993 1 2 0.0706 2 3 0.1563 3	3.5725 1 1.8532 1 2 0.4362 2 3 0.5908 3	2.8267 1 1.5321 1 2 1.5321 2 3 1.6615 3	6.1419 1 1.2196 1 2 0.9185 2 3 1.4145 3	2 4.2263 2 2 1 0.0229 2 1 2 2 0.0130 2 2 2 3 0.4333 2 3	18.9412 1 2.1439 1 2 1.2394 2 3 2.9191 3	14.2810	2.2975 1 1.0793 1 2 0.6064 2 3 0.7275 3	26.1412 1 6.7836 1 2 4.1112 2 3 6.0363 3	4128827697.6219 1 1209783749.4171 1 2 1046613943.3964 2 3 1338608830.3625 3	234795974.3673 1 104909959.4996 1 2 90140800.7649 2 3 103129402.2824 3	19534799565.3217 1 3378348404.8287 1 2 2142493590.2048 2 3 3758580335.0462 3	7.3498 1 2.1536 1 2 1.8631 2 3 2.3829 3	0.4180 1 0.1868 1 2 0.1605 2 3 0.1836 3	34.7743 1 6.0139 1 2 3.8139 2 3 6.6907 3	40590371636.7929 72.2558 2 53.7485 46.7414 2 34.7692 1 9544829119.8084 1 1 16.9910 1 1 10.9912 1 2 5833809763.2603 2 2 10.3849 2 2 6.7179 2 3 8923162073.1275 3 3 15.8843 3 3 10.2754 3	72.2558 2 53.7485 1 16.9910 1 2 10.3849 2 3 15.8843 3	2 53.7485	46.7414 2 34.7692 1 10.9912 1 2 6.7179 2 3 10.2754 3	2 34.7692	1 104909959.4996 1 1 0.1868 1	1 349119392.8629 1 1 0.6215 1	1 813888269.4708 1 1 1.4488 1	1 55772746.3518 1 1 0.0993 1	1 1041064915.0086 1 1 1.8532 1	1 860664356.5541 1 1 1.5321 1	1 685139113.8057 1 1 1.2196 1	2 1 12850718.7736 2 1 2 1 0.0229 2 1	1 1204378290.5937 1 1 2.1439 1	1 606319265.8331 1 1 1.0793 1	1 3810722091.0543 1 1 6.7836 1	1 0.1868 1	1 0.6215 1	1 1.4488 1	1 0.0993 1	1 1.8532 1	1 1.5321 1	1 1.2196 1	2 1 0.0229 2 1	1 2.1439 1	1 1.0793 1	1 6.7836 1	1 1209783749.4171 1	1 104909959.4996 1	1 3378348404.8287 1	1 2.1536 1	1 0.1868 1	1 6.0139 1	1 9544829119.8084 1 1 16.9910 1	1 16.9910 1	1 10.9912 1	2 90140800.7649 2 2 0.1605 2	2 185949586.8422 2 2 0.3310 2	2 542669961.0182 2 2 0.9660 2	2 39678369.2103 2 2 0.0706 2	2 245063078.7731 2 2 0.4362 2	2 860664356.5541 2 2 1.5321 2	2 515948656.3389 2 2 0.9185 2	2 2 7292395.8850 2 2 2 2 0.0130 2 2	2 696254904.4748 2 2 1.2394 2	2 340649303.2775 2 2 0.6064 2	2 2309498350.1211 2 2 4.1112 2	2 0.1605 2	2 0.3310 2	2 0.9660 2	2 0.0706 2	2 0.4362 2	2 1.5321 2	2 0.9185 2	2 2 0.0130 2 2	2 1.2394 2	2 0.6064 2	2 4.1112 2	2 1046613943.3964 2	2 90140800.7649 2	2 2142493590.2048 2	2 1.8631 2	2 0.1605 2	2 3.8139 2	2 5833809763.2603 2 2 10.3849 2	2 10.3849 2	2 6.7179 2	3 103129402.2824 3 3 0.1836 3	3 405218945.8764 3 3 0.7213 3	3 584204433.2729 3 3 1.0400 3	3 87790897.1142 3 3 0.1563 3	3 331882749.1929 3 3 0.5908 3	3 933389884.4860 3 3 1.6615 3	3 794609140.2037 3 3 1.4145 3	2 3 243422337.5458 2 3 2 3 0.4333 2 3	3 1639855099.5363 3 3 2.9191 3	3 408698427.3732 3 3 0.7275 3	3 3390960756.2435 3 3 6.0363 3	3 0.1836 3	3 0.7213 3	3 1.0400 3	3 0.1563 3	3 0.5908 3	3 1.6615 3	3 1.4145 3	2 3 0.4333 2 3	3 2.9191 3	3 0.7275 3	3 6.0363 3	3 1338608830.3625 3	3 103129402.2824 3	3 3758580335.0462 3	3 2.3829 3	3 0.1836 3	3 6.6907 3	3 8923162073.1275 3 3 15.8843 3	3 15.8843 3	3 10.2754 3	862662622	82221707	2580955723	183464007	920612308	1080972122	168010585	2 3451000 2	589545774	596953697	1.5356	0.1464	4.5944	0.3266	1.6388	1.9243	0.2991	2 0.0061 2	1.0495	1.0627	4	4	17	5	12	4	4	2 4 2	4	8	1 50.2405 1	2 31.4669 2	3 34.7020 3	0	0 00400000	155952	0 10000000	16384	0 7 000	16384	0 00400140	0 7 8000	0	504	2016	137105	5721638863	0.0000	461881709	157978697	87361233	70617464.0000	82221707	349	1323443.2923	461881708	157978697	87361233	70617464.0000	82221707	309437175	1.4927	0.6699	1.4927	5.6175	1224653920	306043060	3.9577	1.4927	2.6514	0.9890	4588618446	213723160	14.8289	1.4927	9.9346	0.6907	1357487276	25368169	4.3870	1.4927	2.9390	0.0820	6565966109 14.2157	14.2157																			1 552901437	1 552354187	1 547250	1 546738	1 0	1 0	1 0.0010	1 0.0010	1 0.0000	1 0.0000	1 153903558	1 152197713	1 1705845	1 1705333	1 364664	1 0	1 0.0111	1 0.0111	1 0.0024	1 0.0000	2 2617759	2 2092290	2 525469	2 521373	2 132743	2 0	2 0.2007	2 0.1992	2 0.0507	2 0.0000	552901437	552901402	35	0	0	0	0.0000	0.0000	0.0000	0.0000	157978697	157902557	76140	76012	0	0	0.0005	0.0005	0.0000	0.0000	129334059.4361 0.4180 1 73072004.4796 1 1 0.2361 1 2 48262651.4102 2 2 0.1560 2 3 53888857.0592 3 3 0.1742 3	1399623449.4963 4.5231 1 0.0000 1 1 0.0000 1 2 0.0000 2 2 0.0000 2 3 139962344.7340 3 3 0.4523 3	682098377.2799 2.2043 1 480213068.1185 1 1 1.5519 1 2 365203006.3218 2 2 1.1802 2 3 384538705.8944 3 3 1.2427 3	298043693.5810 0.9632 1 50681608.0763 1 1 0.1638 1 2 34501814.7500 2 2 0.1115 2 3 58822445.2447 3 3 0.1901 3	1105455673.4424 3.5725 1 581162415.4427 1 1 1.8781 1 2 174424354.1343 2 2 0.5637 2 3 221241424.6377 3 3 0.7150 3	874683222.1280 2.8267 1 495213095.3029 1 1 1.6004 1 2 495213095.3029 2 2 1.6004 2 3 533160107.9578 3 3 1.7230 3	1900519462.1376 6.1419 1 632426667.8726 1 1 2.0438 1 2 472626971.4227 2 2 1.5274 2 3 601401049.3481 3 3 1.9435 3	2 1307759134.8435 2 2 4.2263 2 2 1 9439540.5286 2 1 2 1 0.0305 2 1 2 2 5531653.1321 2 2 2 2 0.0179 2 2 2 3 135365120.1775 2 3 2 3 0.4375 2 3	5861103824.0849 4419086208.3377 18.9412 14.2810 1 945290538.0987 1 1 3.0549 1 2 534296817.4808 2 2 1.7267 2 3 1025878153.3358 3 3 3.3153 3	4419086208.3377 14.2810	710945182.3165 2.2975 1 461057454.3536 1 1 1.4900 1 2 263394009.4310 2 2 0.8512 2 3 287568146.3263 3 3 0.9293 3	8089069423.1694 26.1412 1 2525388197.2733 1 1 8.1612 1 2 1594907908.3955 2 2 5.1542 2 3 2147554650.5274 3 3 6.9402 3	0.4180 1 0.2361 1 2 0.1560 2 3 0.1742 3	4.5231 1 0.0000 1 2 0.0000 2 3 0.4523 3	2.2043 1 1.5519 1 2 1.1802 2 3 1.2427 3	0.9632 1 0.1638 1 2 0.1115 2 3 0.1901 3	3.5725 1 1.8781 1 2 0.5637 2 3 0.7150 3	2.8267 1 1.6004 1 2 1.6004 2 3 1.7230 3	6.1419 1 2.0438 1 2 1.5274 2 3 1.9435 3	2 4.2263 2 2 1 0.0305 2 1 2 2 0.0179 2 2 2 3 0.4375 2 3	18.9412 1 3.0549 1 2 1.7267 2 3 3.3153 3	14.2810	2.2975 1 1.4900 1 2 0.8512 2 3 0.9293 3	26.1412 1 8.1612 1 2 5.1542 2 3 6.9402 3	2274306671.6243 1 495213095.3029 1 2 495213095.3029 2 3 673122452.6919 3	129334059.4361 1 73072004.4796 1 2 48262651.4102 2 3 53888857.0592 3	10760469674.2433 1 2579108877.0483 1 2 1675554272.5385 2 3 2493573620.3268 3	7.3498 1 1.6004 1 2 1.6004 2 3 2.1753 3	0.4180 1 0.2361 1 2 0.1560 2 3 0.1742 3	34.7743 1 8.3348 1 2 5.4148 2 3 8.0584 3	22358635501.9154 72.2558 2 53.7485 48.4077 2 36.0088 1 6253944589.5468 1 1 20.2107 1 1 13.5401 1 2 3988362281.7813 2 2 12.8891 2 2 8.6350 2 3 5589381005.2430 3 3 18.0631 3 3 12.1013 3	72.2558 2 53.7485 1 20.2107 1 2 12.8891 2 3 18.0631 3	2 53.7485	48.4077 2 36.0088 1 13.5401 1 2 8.6350 2 3 12.1013 3	2 36.0088	1 73072004.4796 1 1 0.2361 1	1 0.0000 1 1 0.0000 1	1 480213068.1185 1 1 1.5519 1	1 50681608.0763 1 1 0.1638 1	1 581162415.4427 1 1 1.8781 1	1 495213095.3029 1 1 1.6004 1	1 632426667.8726 1 1 2.0438 1	2 1 9439540.5286 2 1 2 1 0.0305 2 1	1 945290538.0987 1 1 3.0549 1	1 461057454.3536 1 1 1.4900 1	1 2525388197.2733 1 1 8.1612 1	1 0.2361 1	1 0.0000 1	1 1.5519 1	1 0.1638 1	1 1.8781 1	1 1.6004 1	1 2.0438 1	2 1 0.0305 2 1	1 3.0549 1	1 1.4900 1	1 8.1612 1	1 495213095.3029 1	1 73072004.4796 1	1 2579108877.0483 1	1 1.6004 1	1 0.2361 1	1 8.3348 1	1 6253944589.5468 1 1 20.2107 1	1 20.2107 1	1 13.5401 1	2 48262651.4102 2 2 0.1560 2	2 0.0000 2 2 0.0000 2	2 365203006.3218 2 2 1.1802 2	2 34501814.7500 2 2 0.1115 2	2 174424354.1343 2 2 0.5637 2	2 495213095.3029 2 2 1.6004 2	2 472626971.4227 2 2 1.5274 2	2 2 5531653.1321 2 2 2 2 0.0179 2 2	2 534296817.4808 2 2 1.7267 2	2 263394009.4310 2 2 0.8512 2	2 1594907908.3955 2 2 5.1542 2	2 0.1560 2	2 0.0000 2	2 1.1802 2	2 0.1115 2	2 0.5637 2	2 1.6004 2	2 1.5274 2	2 2 0.0179 2 2	2 1.7267 2	2 0.8512 2	2 5.1542 2	2 495213095.3029 2	2 48262651.4102 2	2 1675554272.5385 2	2 1.6004 2	2 0.1560 2	2 5.4148 2	2 3988362281.7813 2 2 12.8891 2	2 12.8891 2	2 8.6350 2	3 53888857.0592 3 3 0.1742 3	3 139962344.7340 3 3 0.4523 3	3 384538705.8944 3 3 1.2427 3	3 58822445.2447 3 3 0.1901 3	3 221241424.6377 3 3 0.7150 3	3 533160107.9578 3 3 1.7230 3	3 601401049.3481 3 3 1.9435 3	2 3 135365120.1775 2 3 2 3 0.4375 2 3	3 1025878153.3358 3 3 3.3153 3	3 287568146.3263 3 3 0.9293 3	3 2147554650.5274 3 3 6.9402 3	3 0.1742 3	3 0.4523 3	3 1.2427 3	3 0.1901 3	3 0.7150 3	3 1.7230 3	3 1.9435 3	2 3 0.4375 2 3	3 3.3153 3	3 0.9293 3	3 6.9402 3	3 673122452.6919 3	3 53888857.0592 3	3 2493573620.3268 3	3 2.1753 3	3 0.1742 3	3 8.0584 3	3 5589381005.2430 3 3 18.0631 3	3 18.0631 3	3 12.1013 3	461881690	0	1672471020	162053836	651336961	552901437	153903558	2 2617759 2	451459518	467021216	1.4927	0.0000	5.4049	0.5237	2.1049	1.7868	0.4974	2 0.0085 2	1.4590	1.5093	4	0	17	5	12	4	4	2 4 2	4	8	1 47.8179 1	2 31.2347 2	3 34.7363 3	0	0 00400000	155952	0 10000000	16384	0 7 000	16384	0 00400140	0 7 8000	0	504	2016	508	3485248962	0.0000	461881709	157978697	87361233	70617464.0000	82221707	424	1089343.6533	581415632	207245264	113557688	93687576.0000	110401518	384092711	1.2025	0.8316	1.5137	5.6175	1269520773	289183462	3.3052	1.5137	2.1835	0.7529	4740953898	212743211	12.3433	1.5137	8.1542	0.5539	1409644831	31177921	3.6701	1.5137	2.4245	0.0812	6195291692 13.4132	13.4132																			1 623731162	1 623265668	1 465494	1 464982	1 0	1 0	1 0.0007	1 0.0007	1 0.0000	1 0.0000	1 161949117	1 159993044	1 1956073	1 1955561	1 369083	1 0	1 0.0121	1 0.0121	1 0.0023	1 0.0000	2 2790650	2 2204017	2 586633	2 582537	2 134199	2 0	2 0.2102	2 0.2087	2 0.0481	2 0.0000	623731162	623731127	35	0	0	0	0.0000	0.0000	0.0000	0.0000	166017553	165936882	80671	80543	0	0	0.0005	0.0005	0.0000	0.0000	160537497.8095 0.4180 1 87099487.1212 1 1 0.2268 1 2 60752829.8689 2 2 0.1582 2 3 68096631.0502 3 3 0.1773 3	1737299872.5781 4.5231 1 330537285.8759 1 1 0.8606 1 2 185949586.8207 2 2 0.4841 2 3 327432946.4820 3 3 0.8525 3	846663029.3566 2.2043 1 574812452.8498 1 1 1.4965 1 2 413913543.0423 2 2 1.0776 2 3 439901151.8297 3 3 1.1453 3	369950413.1598 0.9632 1 55893447.2409 1 1 0.1455 1 2 37189232.7651 2 2 0.0968 2 3 68128872.4538 3 3 0.1774 3	1372160492.5762 3.5725 1 713193079.6624 1 1 1.8568 1 2 189777407.2490 2 2 0.4941 2 3 248357232.4206 3 3 0.6466 3	1085711338.8932 2.8267 1 630975371.7928 1 1 1.6428 1 2 630975371.7928 2 2 1.6428 2 3 676448967.3047 3 3 1.7612 3	2359043232.3058 6.1419 1 685820768.0513 1 1 1.7856 1 2 497334315.6404 2 2 1.2948 2 3 666105529.3243 3 3 1.7342 3	2 1623272160.0767 2 2 4.2263 2 2 1 10138896.2973 2 1 2 1 0.0264 2 1 2 2 5896993.5022 2 2 2 2 0.0154 2 2 2 3 167211888.3695 2 3 2 3 0.4353 2 3	7275167430.5822 5485245274.4682 18.9412 14.2810 1 1058133224.0644 1 1 2.7549 1 2 583594195.6397 2 2 1.5194 2 3 1205297623.1192 3 3 3.1380 3	5485245274.4682 14.2810	882469481.2124 2.2975 1 512562317.6610 1 1 1.3345 1 2 288471431.7631 2 2 0.7510 2 3 324737983.2986 3 3 0.8455 3	10040657217.6484 26.1412 1 3099275858.4538 1 1 8.0691 1 2 1907717425.5000 2 2 4.9668 2 3 2597246288.5877 3 3 6.7620 3	0.4180 1 0.2268 1 2 0.1582 2 3 0.1773 3	4.5231 1 0.8606 1 2 0.4841 2 3 0.8525 3	2.2043 1 1.4965 1 2 1.0776 2 3 1.1453 3	0.9632 1 0.1455 1 2 0.0968 2 3 0.1774 3	3.5725 1 1.8568 1 2 0.4941 2 3 0.6466 3	2.8267 1 1.6428 1 2 1.6428 2 3 1.7612 3	6.1419 1 1.7856 1 2 1.2948 2 3 1.7342 3	2 4.2263 2 2 1 0.0264 2 1 2 2 0.0154 2 2 2 3 0.4353 2 3	18.9412 1 2.7549 1 2 1.5194 2 3 3.1380 3	14.2810	2.2975 1 1.3345 1 2 0.7510 2 3 0.8455 3	26.1412 1 8.0691 1 2 4.9668 2 3 6.7620 3	2823011211.4713 1 961512657.6687 1 2 816924958.6135 2 3 1003881913.7867 3	160537497.8095 1 87099487.1212 1 2 60752829.8689 2 3 68096631.0502 3	13356565746.6936 1 2897361106.1647 1 2 1826399712.3528 2 3 2871383048.3952 3	7.3498 1 2.5033 1 2 2.1269 2 3 2.6136 3	0.4180 1 0.2268 1 2 0.1582 2 3 0.1773 3	34.7743 1 7.5434 1 2 4.7551 2 3 7.4758 3	27752932166.1989 72.2558 2 53.7485 47.7334 2 35.5072 1 7758442189.0708 1 1 20.1994 1 1 13.3441 1 2 4801572333.5842 2 2 12.5011 2 2 8.2584 2 3 6788965114.2405 3 3 17.6753 3 3 11.6766 3	72.2558 2 53.7485 1 20.1994 1 2 12.5011 2 3 17.6753 3	2 53.7485	47.7334 2 35.5072 1 13.3441 1 2 8.2584 2 3 11.6766 3	2 35.5072	1 87099487.1212 1 1 0.2268 1	1 330537285.8759 1 1 0.8606 1	1 574812452.8498 1 1 1.4965 1	1 55893447.2409 1 1 0.1455 1	1 713193079.6624 1 1 1.8568 1	1 630975371.7928 1 1 1.6428 1	1 685820768.0513 1 1 1.7856 1	2 1 10138896.2973 2 1 2 1 0.0264 2 1	1 1058133224.0644 1 1 2.7549 1	1 512562317.6610 1 1 1.3345 1	1 3099275858.4538 1 1 8.0691 1	1 0.2268 1	1 0.8606 1	1 1.4965 1	1 0.1455 1	1 1.8568 1	1 1.6428 1	1 1.7856 1	2 1 0.0264 2 1	1 2.7549 1	1 1.3345 1	1 8.0691 1	1 961512657.6687 1	1 87099487.1212 1	1 2897361106.1647 1	1 2.5033 1	1 0.2268 1	1 7.5434 1	1 7758442189.0708 1 1 20.1994 1	1 20.1994 1	1 13.3441 1	2 60752829.8689 2 2 0.1582 2	2 185949586.8207 2 2 0.4841 2	2 413913543.0423 2 2 1.0776 2	2 37189232.7651 2 2 0.0968 2	2 189777407.2490 2 2 0.4941 2	2 630975371.7928 2 2 1.6428 2	2 497334315.6404 2 2 1.2948 2	2 2 5896993.5022 2 2 2 2 0.0154 2 2	2 583594195.6397 2 2 1.5194 2	2 288471431.7631 2 2 0.7510 2	2 1907717425.5000 2 2 4.9668 2	2 0.1582 2	2 0.4841 2	2 1.0776 2	2 0.0968 2	2 0.4941 2	2 1.6428 2	2 1.2948 2	2 2 0.0154 2 2	2 1.5194 2	2 0.7510 2	2 4.9668 2	2 816924958.6135 2	2 60752829.8689 2	2 1826399712.3528 2	2 2.1269 2	2 0.1582 2	2 4.7551 2	2 4801572333.5842 2 2 12.5011 2	2 12.5011 2	2 8.2584 2	3 68096631.0502 3 3 0.1773 3	3 327432946.4820 3 3 0.8525 3	3 439901151.8297 3 3 1.1453 3	3 68128872.4538 3 3 0.1774 3	3 248357232.4206 3 3 0.6466 3	3 676448967.3047 3 3 1.7612 3	3 666105529.3243 3 3 1.7342 3	2 3 167211888.3695 2 3 2 3 0.4353 2 3	3 1205297623.1192 3 3 3.1380 3	3 324737983.2986 3 3 0.8455 3	3 2597246288.5877 3 3 6.7620 3	3 0.1773 3	3 0.8525 3	3 1.1453 3	3 0.1774 3	3 0.6466 3	3 1.7612 3	3 1.7342 3	2 3 0.4353 2 3	3 3.1380 3	3 0.8455 3	3 6.7620 3	3 1003881913.7867 3	3 68096631.0502 3	3 2871383048.3952 3	3 2.6136 3	3 0.1773 3	3 7.4758 3	3 6788965114.2405 3 3 17.6753 3	3 17.6753 3	3 11.6766 3	581414798	82221707	1919439349	172856578	715752737	623732144	161949117	2 2790650 2	493633040	509760638	1.5137	0.2141	4.9973	0.4500	1.8635	1.6239	0.4216	2 0.0073 2	1.2852	1.3272	4	4	16	5	12	4	4	2 4 2	4	8	1 51.5039 1	2 32.9316 2	3 36.0470 3	0	0 00400000	155952	0 10000000	16384	0 7 000	16384	0 00400140	0 7 8000	0	504	2016	876	3807482516	0.0000	
[...]
58822445.2447 3 3 0.1901 3	1105455673.4424 3.5725 1 581162415.4427 1 1 1.8781 1 2 174424354.1343 2 2 0.5637 2 3 221241424.6377 3 3 0.7150 3	874683222.1280 2.8267 1 495213095.3029 1 1 1.6004 1 2 495213095.3029 2 2 1.6004 2 3 533160107.9578 3 3 1.7230 3	1900519462.1376 6.1419 1 632426667.8726 1 1 2.0438 1 2 472626971.4227 2 2 1.5274 2 3 601401049.3481 3 3 1.9435 3	2 1307759134.8435 2 2 4.2263 2 2 1 9439540.5286 2 1 2 1 0.0305 2 1 2 2 5531653.1321 2 2 2 2 0.0179 2 2 2 3 135365120.1775 2 3 2 3 0.4375 2 3	5861103824.0849 4419086208.3377 18.9412 14.2810 1 945290538.0987 1 1 3.0549 1 2 534296817.4808 2 2 1.7267 2 3 1025878153.3358 3 3 3.3153 3	4419086208.3377 14.2810	710945182.3165 2.2975 1 461057454.3536 1 1 1.4900 1 2 263394009.4310 2 2 0.8512 2 3 287568146.3263 3 3 0.9293 3	8089069423.1694 26.1412 1 2525388197.2733 1 1 8.1612 1 2 1594907908.3955 2 2 5.1542 2 3 2147554650.5274 3 3 6.9402 3	0.4180 1 0.2361 1 2 0.1560 2 3 0.1742 3	4.5231 1 0.0000 1 2 0.0000 2 3 0.4523 3	2.2043 1 1.5519 1 2 1.1802 2 3 1.2427 3	0.9632 1 0.1638 1 2 0.1115 2 3 0.1901 3	3.5725 1 1.8781 1 2 0.5637 2 3 0.7150 3	2.8267 1 1.6004 1 2 1.6004 2 3 1.7230 3	6.1419 1 2.0438 1 2 1.5274 2 3 1.9435 3	2 4.2263 2 2 1 0.0305 2 1 2 2 0.0179 2 2 2 3 0.4375 2 3	18.9412 1 3.0549 1 2 1.7267 2 3 3.3153 3	14.2810	2.2975 1 1.4900 1 2 0.8512 2 3 0.9293 3	26.1412 1 8.1612 1 2 5.1542 2 3 6.9402 3	2274306671.6243 1 495213095.3029 1 2 495213095.3029 2 3 673122452.6919 3	129334059.4361 1 73072004.4796 1 2 48262651.4102 2 3 53888857.0592 3	10760469674.2433 1 2579108877.0483 1 2 1675554272.5385 2 3 2493573620.3268 3	7.3498 1 1.6004 1 2 1.6004 2 3 2.1753 3	0.4180 1 0.2361 1 2 0.1560 2 3 0.1742 3	34.7743 1 8.3348 1 2 5.4148 2 3 8.0584 3	22358635501.9154 72.2558 2 53.7485 48.4077 2 36.0088 1 6253944589.5468 1 1 20.2107 1 1 13.5401 1 2 3988362281.7813 2 2 12.8891 2 2 8.6350 2 3 5589381005.2430 3 3 18.0631 3 3 12.1013 3	72.2558 2 53.7485 1 20.2107 1 2 12.8891 2 3 18.0631 3	2 53.7485	48.4077 2 36.0088 1 13.5401 1 2 8.6350 2 3 12.1013 3	2 36.0088	1 73072004.4796 1 1 0.2361 1	1 0.0000 1 1 0.0000 1	1 480213068.1185 1 1 1.5519 1	1 50681608.0763 1 1 0.1638 1	1 581162415.4427 1 1 1.8781 1	1 495213095.3029 1 1 1.6004 1	1 632426667.8726 1 1 2.0438 1	2 1 9439540.5286 2 1 2 1 0.0305 2 1	1 945290538.0987 1 1 3.0549 1	1 461057454.3536 1 1 1.4900 1	1 2525388197.2733 1 1 8.1612 1	1 0.2361 1	1 0.0000 1	1 1.5519 1	1 0.1638 1	1 1.8781 1	1 1.6004 1	1 2.0438 1	2 1 0.0305 2 1	1 3.0549 1	1 1.4900 1	1 8.1612 1	1 495213095.3029 1	1 73072004.4796 1	1 2579108877.0483 1	1 1.6004 1	1 0.2361 1	1 8.3348 1	1 6253944589.5468 1 1 20.2107 1	1 20.2107 1	1 13.5401 1	2 48262651.4102 2 2 0.1560 2	2 0.0000 2 2 0.0000 2	2 365203006.3218 2 2 1.1802 2	2 34501814.7500 2 2 0.1115 2	2 174424354.1343 2 2 0.5637 2	2 495213095.3029 2 2 1.6004 2	2 472626971.4227 2 2 1.5274 2	2 2 5531653.1321 2 2 2 2 0.0179 2 2	2 534296817.4808 2 2 1.7267 2	2 263394009.4310 2 2 0.8512 2	2 1594907908.3955 2 2 5.1542 2	2 0.1560 2	2 0.0000 2	2 1.1802 2	2 0.1115 2	2 0.5637 2	2 1.6004 2	2 1.5274 2	2 2 0.0179 2 2	2 1.7267 2	2 0.8512 2	2 5.1542 2	2 495213095.3029 2	2 48262651.4102 2	2 1675554272.5385 2	2 1.6004 2	2 0.1560 2	2 5.4148 2	2 3988362281.7813 2 2 12.8891 2	2 12.8891 2	2 8.6350 2	3 53888857.0592 3 3 0.1742 3	3 139962344.7340 3 3 0.4523 3	3 384538705.8944 3 3 1.2427 3	3 58822445.2447 3 3 0.1901 3	3 221241424.6377 3 3 0.7150 3	3 533160107.9578 3 3 1.7230 3	3 601401049.3481 3 3 1.9435 3	2 3 135365120.1775 2 3 2 3 0.4375 2 3	3 1025878153.3358 3 3 3.3153 3	3 287568146.3263 3 3 0.9293 3	3 2147554650.5274 3 3 6.9402 3	3 0.1742 3	3 0.4523 3	3 1.2427 3	3 0.1901 3	3 0.7150 3	3 1.7230 3	3 1.9435 3	2 3 0.4375 2 3	3 3.3153 3	3 0.9293 3	3 6.9402 3	3 673122452.6919 3	3 53888857.0592 3	3 2493573620.3268 3	3 2.1753 3	3 0.1742 3	3 8.0584 3	3 5589381005.2430 3 3 18.0631 3	3 18.0631 3	3 12.1013 3	461881690	0	1672471020	162053836	651336961	552901437	153903558	2 2617759 2	451459518	467021216	1.4927	0.0000	5.4049	0.5237	2.1049	1.7868	0.4974	2 0.0085 2	1.4590	1.5093	4	0	17	5	12	4	4	2 4 2	4	8	1 47.8179 1	2 31.2347 2	3 34.7363 3	0	0 00400000	155952	0 10000000	16384	0 7 000	16384	0 00400140	0 7 8000	0	504	2016	508	3485248962	0.0000	461881709	157978697	87361233	70617464.0000	82221707	424	1089343.6533	581415632	207245264	113557688	93687576.0000	110401518	384092711	1.2025	0.8316	1.5137	5.6175	1269520773	289183462	3.3052	1.5137	2.1835	0.7529	4740953898	212743211	12.3433	1.5137	8.1542	0.5539	1409644831	31177921	3.6701	1.5137	2.4245	0.0812	6195291692 13.4132	13.4132																			1 623731162	1 623265668	1 465494	1 464982	1 0	1 0	1 0.0007	1 0.0007	1 0.0000	1 0.0000	1 161949117	1 159993044	1 1956073	1 1955561	1 369083	1 0	1 0.0121	1 0.0121	1 0.0023	1 0.0000	2 2790650	2 2204017	2 586633	2 582537	2 134199	2 0	2 0.2102	2 0.2087	2 0.0481	2 0.0000	623731162	623731127	35	0	0	0	0.0000	0.0000	0.0000	0.0000	166017553	165936882	80671	80543	0	0	0.0005	0.0005	0.0000	0.0000	160537497.8095 0.4180 1 87099487.1212 1 1 0.2268 1 2 60752829.8689 2 2 0.1582 2 3 68096631.0502 3 3 0.1773 3	1737299872.5781 4.5231 1 330537285.8759 1 1 0.8606 1 2 185949586.8207 2 2 0.4841 2 3 327432946.4820 3 3 0.8525 3	846663029.3566 2.2043 1 574812452.8498 1 1 1.4965 1 2 413913543.0423 2 2 1.0776 2 3 439901151.8297 3 3 1.1453 3	369950413.1598 0.9632 1 55893447.2409 1 1 0.1455 1 2 37189232.7651 2 2 0.0968 2 3 68128872.4538 3 3 0.1774 3	1372160492.5762 3.5725 1 713193079.6624 1 1 1.8568 1 2 189777407.2490 2 2 0.4941 2 3 248357232.4206 3 3 0.6466 3	1085711338.8932 2.8267 1 630975371.7928 1 1 1.6428 1 2 630975371.7928 2 2 1.6428 2 3 676448967.3047 3 3 1.7612 3	2359043232.3058 6.1419 1 685820768.0513 1 1 1.7856 1 2 497334315.6404 2 2 1.2948 2 3 666105529.3243 3 3 1.7342 3	2 1623272160.0767 2 2 4.2263 2 2 1 10138896.2973 2 1 2 1 0.0264 2 1 2 2 5896993.5022 2 2 2 2 0.0154 2 2 2 3 167211888.3695 2 3 2 3 0.4353 2 3	7275167430.5822 5485245274.4682 18.9412 14.2810 1 1058133224.0644 1 1 2.7549 1 2 583594195.6397 2 2 1.5194 2 3 1205297623.1192 3 3 3.1380 3	5485245274.4682 14.2810	882469481.2124 2.2975 1 512562317.6610 1 1 1.3345 1 2 288471431.7631 2 2 0.7510 2 3 324737983.2986 3 3 0.8455 3	10040657217.6484 26.1412 1 3099275858.4538 1 1 8.0691 1 2 1907717425.5000 2 2 4.9668 2 3 2597246288.5877 3 3 6.7620 3	0.4180 1 0.2268 1 2 0.1582 2 3 0.1773 3	4.5231 1 0.8606 1 2 0.4841 2 3 0.8525 3	2.2043 1 1.4965 1 2 1.0776 2 3 1.1453 3	0.9632 1 0.1455 1 2 0.0968 2 3 0.1774 3	3.5725 1 1.8568 1 2 0.4941 2 3 0.6466 3	2.8267 1 1.6428 1 2 1.6428 2 3 1.7612 3	6.1419 1 1.7856 1 2 1.2948 2 3 1.7342 3	2 4.2263 2 2 1 0.0264 2 1 2 2 0.0154 2 2 2 3 0.4353 2 3	18.9412 1 2.7549 1 2 1.5194 2 3 3.1380 3	14.2810	2.2975 1 1.3345 1 2 0.7510 2 3 0.8455 3	26.1412 1 8.0691 1 2 4.9668 2 3 6.7620 3	2823011211.4713 1 961512657.6687 1 2 816924958.6135 2 3 1003881913.7867 3	160537497.8095 1 87099487.1212 1 2 60752829.8689 2 3 68096631.0502 3	13356565746.6936 1 2897361106.1647 1 2 1826399712.3528 2 3 2871383048.3952 3	7.3498 1 2.5033 1 2 2.1269 2 3 2.6136 3	0.4180 1 0.2268 1 2 0.1582 2 3 0.1773 3	34.7743 1 7.5434 1 2 4.7551 2 3 7.4758 3	27752932166.1989 72.2558 2 53.7485 47.7334 2 35.5072 1 7758442189.0708 1 1 20.1994 1 1 13.3441 1 2 4801572333.5842 2 2 12.5011 2 2 8.2584 2 3 6788965114.2405 3 3 17.6753 3 3 11.6766 3	72.2558 2 53.7485 1 20.1994 1 2 12.5011 2 3 17.6753 3	2 53.7485	47.7334 2 35.5072 1 13.3441 1 2 8.2584 2 3 11.6766 3	2 35.5072	1 87099487.1212 1 1 0.2268 1	1 330537285.8759 1 1 0.8606 1	1 574812452.8498 1 1 1.4965 1	1 55893447.2409 1 1 0.1455 1	1 713193079.6624 1 1 1.8568 1	1 630975371.7928 1 1 1.6428 1	1 685820768.0513 1 1 1.7856 1	2 1 10138896.2973 2 1 2 1 0.0264 2 1	1 1058133224.0644 1 1 2.7549 1	1 512562317.6610 1 1 1.3345 1	1 3099275858.4538 1 1 8.0691 1	1 0.2268 1	1 0.8606 1	1 1.4965 1	1 0.1455 1	1 1.8568 1	1 1.6428 1	1 1.7856 1	2 1 0.0264 2 1	1 2.7549 1	1 1.3345 1	1 8.0691 1	1 961512657.6687 1	1 87099487.1212 1	1 2897361106.1647 1	1 2.5033 1	1 0.2268 1	1 7.5434 1	1 7758442189.0708 1 1 20.1994 1	1 20.1994 1	1 13.3441 1	2 60752829.8689 2 2 0.1582 2	2 185949586.8207 2 2 0.4841 2	2 413913543.0423 2 2 1.0776 2	2 37189232.7651 2 2 0.0968 2	2 189777407.2490 2 2 0.4941 2	2 630975371.7928 2 2 1.6428 2	2 497334315.6404 2 2 1.2948 2	2 2 5896993.5022 2 2 2 2 0.0154 2 2	2 583594195.6397 2 2 1.5194 2	2 288471431.7631 2 2 0.7510 2	2 1907717425.5000 2 2 4.9668 2	2 0.1582 2	2 0.4841 2	2 1.0776 2	2 0.0968 2	2 0.4941 2	2 1.6428 2	2 1.2948 2	2 2 0.0154 2 2	2 1.5194 2	2 0.7510 2	2 4.9668 2	2 816924958.6135 2	2 60752829.8689 2	2 1826399712.3528 2	2 2.1269 2	2 0.1582 2	2 4.7551 2	2 4801572333.5842 2 2 12.5011 2	2 12.5011 2	2 8.2584 2	3 68096631.0502 3 3 0.1773 3	3 327432946.4820 3 3 0.8525 3	3 439901151.8297 3 3 1.1453 3	3 68128872.4538 3 3 0.1774 3	3 248357232.4206 3 3 0.6466 3	3 676448967.3047 3 3 1.7612 3	3 666105529.3243 3 3 1.7342 3	2 3 167211888.3695 2 3 2 3 0.4353 2 3	3 1205297623.1192 3 3 3.1380 3	3 324737983.2986 3 3 0.8455 3	3 2597246288.5877 3 3 6.7620 3	3 0.1773 3	3 0.8525 3	3 1.1453 3	3 0.1774 3	3 0.6466 3	3 1.7612 3	3 1.7342 3	2 3 0.4353 2 3	3 3.1380 3	3 0.8455 3	3 6.7620 3	3 1003881913.7867 3	3 68096631.0502 3	3 2871383048.3952 3	3 2.6136 3	3 0.1773 3	3 7.4758 3	3 6788965114.2405 3 3 17.6753 3	3 17.6753 3	3 11.6766 3	581414798	82221707	1919439349	172856578	715752737	623732144	161949117	2 2790650 2	493633040	509760638	1.5137	0.2141	4.9973	0.4500	1.8635	1.6239	0.4216	2 0.0073 2	1.2852	1.3272	4	4	16	5	12	4	4	2 4 2	4	8	1 51.5039 1	2 32.9316 2	3 36.0470 3	0	0 00400000	155952	0 10000000	16384	0 7 000	16384	0 00400140	0 7 8000	0	504	2016	876	3807482516	0.0000	104948763	35867358	19824514	16042844.0000	18516398	96	1093216.2812	128613679	43133364	26076996	17056368.0000	25789434	86307473	1.2160	0.8224	1.4902	5.6679	279773636	63450083	3.2416	1.4902	2.1753	0.7352	1037070522	45682372	12.0160	1.4902	8.0635	0.5293	302773814	5797262	3.5081	1.4902	2.3541	0.0672	1388471523 13.2300	13.2300																			1 139395061	1 139269738	1 125323	1 124811	1 0	1 0	1 0.0009	1 0.0009	1 0.0000	1 0.0000	1 36927433	1 36608041	1 319392	1 318880	1 77831	1 0	1 0.0086	1 0.0086	1 0.0021	1 0.0000	2 522546	2 507253	2 15293	2 11197	2 6721	2 0	2 0.0293	2 0.0214	2 0.0129	2 0.0000	139395061	139395026	35	0	0	0	0.0000	0.0000	0.0000	0.0000	37859205	37859093	112	0	0	0	0.0000	0.0000	0.0000	0.0000	36073544.9545 0.4180 1 19444829.4469 1 1 0.2253 1 2 13435146.1342 2 2 0.1557 2 3 15098017.6745 3 3 0.1749 3	390379609.9131 4.5231 1 74105161.4527 1 1 0.8586 1 2 41876004.2677 2 2 0.4852 2 3 73672277.9256 3 3 0.8536 3	190249238.6185 2.2043 1 131354302.5747 1 1 1.5219 1 2 95086108.3490 2 2 1.1017 2 3 100747506.4925 3 3 1.1673 3	83129630.9134 0.9632 1 12369052.1454 1 1 0.1433 1 2 8438817.1228 2 2 0.0978 2 3 15412671.5977 3 3 0.1786 3	308331039.3725 3.5725 1 166513605.1737 1 1 1.9293 1 2 43732415.7524 2 2 0.5067 2 3 56531112.8891 3 3 0.6550 3	243964541.9130 2.8267 1 141173041.0300 1 1 1.6357 1 2 141173041.0300 2 2 1.6357 2 3 151452191.1779 3 3 1.7548 3	530088324.2127 6.1419 1 154348010.5209 1 1 1.7884 1 2 113401542.1472 2 2 1.3139 2 3 151274472.1810 3 3 1.7527 3	2 364757033.8684 2 2 4.2263 2 2 1 1852143.8803 2 1 2 1 0.0215 2 1 2 2 1104205.2449 2 2 2 2 0.0128 2 2 2 3 37395801.2294 2 3 2 3 0.4333 2 3	1634764987.9835 1232560902.1593 18.9412 14.2810 1 238081598.0095 1 1 2.7585 1 2 132552667.0653 2 2 1.5358 2 3 272221005.4333 3 3 3.1541 3	1232560902.1593 14.2810	198295120.9654 2.2975 1 116525326.1604 1 1 1.3501 1 2 65172988.1354 2 2 0.7551 2 3 73188022.3553 3 3 0.8480 3	2256183794.8496 26.1412 1 705777321.5248 1 1 8.1775 1 2 435231160.1883 2 2 5.0428 2 3 589358739.4751 3 3 6.8286 3	0.4180 1 0.2253 1 2 0.1557 2 3 0.1749 3	4.5231 1 0.8586 1 2 0.4852 2 3 0.8536 3	2.2043 1 1.5219 1 2 1.1017 2 3 1.1673 3	0.9632 1 0.1433 1 2 0.0978 2 3 0.1786 3	3.5725 1 1.9293 1 2 0.5067 2 3 0.6550 3	2.8267 1 1.6357 1 2 1.6357 2 3 1.7548 3	6.1419 1 1.7884 1 2 1.3139 2 3 1.7527 3	2 4.2263 2 2 1 0.0215 2 1 2 2 0.0128 2 2 2 3 0.4333 2 3	18.9412 1 2.7585 1 2 1.5358 2 3 3.1541 3	14.2810	2.2975 1 1.3501 1 2 0.7551 2 3 0.8480 3	26.1412 1 8.1775 1 2 5.0428 2 3 6.8286 3	634344151.8261 1 215278202.4826 1 2 183049045.2977 2 3 225124469.1034 3	36073544.9545 1 19444829.4469 1 2 13435146.1342 2 3 15098017.6745 3	3001284336.5619 1 654530433.2912 1 2 415756328.0646 2 3 650239479.2891 3	7.3498 1 2.4943 1 2 2.1209 2 3 2.6084 3	0.4180 1 0.2253 1 2 0.1557 2 3 0.1749 3	34.7743 1 7.5837 1 2 4.8172 2 3 7.5340 3	6236216867.5646 72.2558 2 53.7485 48.4880 2 36.0685 1 1761544391.9193 1 1 20.4101 1 1 13.6964 1 2 1091204095.4372 2 2 12.6432 2 2 8.4844 2 3 1536351818.4313 3 3 17.8009 3 3 11.9455 3	72.2558 2 53.7485 1 20.4101 1 2 12.6432 2 3 17.8009 3	2 53.7485	48.4880 2 36.0685 1 13.6964 1 2 8.4844 2 3 11.9455 3	2 36.0685	1 19444829.4469 1 1 0.2253 1	1 74105161.4527 1 1 0.8586 1	1 131354302.5747 1 1 1.5219 1	1 12369052.1454 1 1 0.1433 1	1 166513605.1737 1 1 1.9293 1	1 141173041.0300 1 1 1.6357 1	1 154348010.5209 1 1 1.7884 1	2 1 1852143.8803 2 1 2 1 0.0215 2 1	1 238081598.0095 1 1 2.7585 1	1 116525326.1604 1 1 1.3501 1	1 705777321.5248 1 1 8.1775 1	1 0.2253 1	1 0.8586 1	1 1.5219 1	1 0.1433 1	1 1.9293 1	1 1.6357 1	1 1.7884 1	2 1 0.0215 2 1	1 2.7585 1	1 1.3501 1	1 8.1775 1	1 215278202.4826 1	1 19444829.4469 1	1 654530433.2912 1	1 2.4943 1	1 0.2253 1	1 7.5837 1	1 1761544391.9193 1 1 20.4101 1	1 20.4101 1	1 13.6964 1	2 13435146.1342 2 2 0.1557 2	2 41876004.2677 2 2 0.4852 2	2 95086108.3490 2 2 1.1017 2	2 8438817.1228 2 2 0.0978 2	2 43732415.7524 2 2 0.5067 2	2 141173041.0300 2 2 1.6357 2	2 113401542.1472 2 2 1.3139 2	2 2 1104205.2449 2 2 2 2 0.0128 2 2	2 132552667.0653 2 2 1.5358 2	2 65172988.1354 2 2 0.7551 2	2 435231160.1883 2 2 5.0428 2	2 0.1557 2	2 0.4852 2	2 1.1017 2	2 0.0978 2	2 0.5067 2	2 1.6357 2	2 1.3139 2	2 2 0.0128 2 2	2 1.5358 2	2 0.7551 2	2 5.0428 2	2 183049045.2977 2	2 13435146.1342 2	2 415756328.0646 2	2 2.1209 2	2 0.1557 2	2 4.8172 2	2 1091204095.4372 2 2 12.6432 2	2 12.6432 2	2 8.4844 2	3 15098017.6745 3 3 0.1749 3	3 73672277.9256 3 3 0.8536 3	3 100747506.4925 3 3 1.1673 3	3 15412671.5977 3 3 0.1786 3	3 56531112.8891 3 3 0.6550 3	3 151452191.1779 3 3 1.7548 3	3 151274472.1810 3 3 1.7527 3	2 3 37395801.2294 2 3 2 3 0.4333 2 3	3 272221005.4333 3 3 3.1541 3	3 73188022.3553 3 3 0.8480 3	3 589358739.4751 3 3 6.8286 3	3 0.1749 3	3 0.8536 3	3 1.1673 3	3 0.1786 3	3 0.6550 3	3 1.7548 3	3 1.7527 3	2 3 0.4333 2 3	3 3.1541 3	3 0.8480 3	3 6.8286 3	3 225124469.1034 3	3 15098017.6745 3	3 650239479.2891 3	3 2.6084 3	3 0.1749 3	3 7.5340 3	3 1536351818.4313 3 3 17.8009 3	3 17.8009 3	3 11.9455 3	128576608	18516398	437505073	39042542	162479230	139580118	36927433	2 522546 2	112134799	115108649	1.4898	0.2145	5.0691	0.4524	1.8826	1.6172	0.4279	2 0.0061 2	1.2992	1.3337	4	4	16	5	12	4	4	2 4 2	4	8	1 51.9573 1	2 33.3284 2	3 36.4019 3	0	0 00400000	155952	0 10000000	16384	0 7 000	16384	0 00400140	0 7 8000	0	151	604	280	857775293	0.0000	104948763	35867358	19824514	16042844.0000	18516398	93	1128481.3226	124132628	42107479	25163233	16944246.0000	24663452	82762493	1.2681	0.7886	1.4999	5.6679	274078803	62432867	3.3116	1.4999	2.2080	0.7544	1027168705	46514866	12.4110	1.4999	8.2748	0.5620	301229015	5670276	3.6397	1.4999	2.4267	0.0685	1398476327 13.3253	13.3253																			1 133168097	1 133053596	1 114501	1 113989	1 0	1 0	1 0.0009	1 0.0009	1 0.0000	1 0.0000	1 36219074	1 35904074	1 315000	1 314488	1 77677	1 0	1 0.0087	1 0.0087	1 0.0021	1 0.0000	2 507178	2 491999	2 15179	2 11083	2 6680	2 0	2 0.0299	2 0.0219	2 0.0132	2 0.0000	133168097	133168062	35	0	0	0	0.0000	0.0000	0.0000	0.0000	37141478	37141366	112	0	0	0	0.0000	0.0000	0.0000	0.0000	34591865.6637 0.4180 1 18888926.9904 1 1 0.2282 1 2 12970715.3199 2 2 0.1567 2 3 14541009.1775 3 3 0.1757 3	374345217.2048 4.5231 1 73507319.4834 1 1 0.8882 1 2 41876004.2680 2 2 0.5060 2 3 72148289.1979 3 3 0.8718 3	182434970.3700 2.2043 1 126907415.0119 1 1 1.5334 1 2 92016206.7271 2 2 1.1118 2 3 97334707.6555 3 3 1.1761 3	79715177.1102 0.9632 1 12280954.9622 1 1 0.1484 1 2 8222851.0784 2 2 0.0994 2 3 14868823.8013 3 3 0.1797 3	295666697.2434 3.5725 1 160270191.6747 1 1 1.9365 1 2 42663864.8376 2 2 0.5155 2 3 54848573.3394 3 3 0.6627 3	233943979.4799 2.8267 1 136073142.4075 1 1 1.6441 1 2 136073142.4075 2 2 1.6441 2 3 145860226.1534 3 3 1.7624 3	508315557.1241 6.1419 1 153035387.7838 1 1 1.8491 1 2 111226221.6206 2 2 1.3439 2 3 147068739.0625 3 3 1.7770 3	2 349775058.9993 2 2 4.2263 2 2 1 1797253.3340 2 1 2 1 0.0217 2 1 2 2 1071730.7331 2 2 2 2 0.0129 2 2 2 3 35869885.8814 2 3 2 3 0.4334 2 3	1567618899.7984 1181934883.3970 18.9412 14.2810 1 234206172.2013 1 1 2.8299 1 2 129441384.7465 2 2 1.5640 2 3 262782656.8911 3 3 3.1751 3	1181934883.3970 14.2810	190150377.3363 2.2975 1 114052531.1557 1 1 1.3781 1 2 63564538.9036 2 2 0.7680 2 3 71007925.6174 3 3 0.8580 3	2163513645.1145 26.1412 1 690828645.3791 1 1 8.3471 1 2 425360827.7543 2 2 5.1395 2 3 571737035.8023 3 3 6.9082 3	0.4180 1 0.2282 1 2 0.1567 2 3 0.1757 3	4.5231 1 0.8882 1 2 0.5060 2 3 0.8718 3	2.2043 1 1.5334 1 2 1.1118 2 3 1.1761 3	0.9632 1 0.1484 1 2 0.0994 2 3 0.1797 3	3.5725 1 1.9365 1 2 0.5155 2 3 0.6627 3	2.8267 1 1.6441 1 2 1.6441 2 3 1.7624 3	6.1419 1 1.8491 1 2 1.3439 2 3 1.7770 3	2 4.2263 2 2 1 0.0217 2 1 2 2 0.0129 2 2 2 3 0.4334 2 3	18.9412 1 2.8299 1 2 1.5640 2 3 3.1751 3	14.2810	2.2975 1 1.3781 1 2 0.7680 2 3 0.8580 3	26.1412 1 8.3471 1 2 5.1395 2 3 6.9082 3	608289196.6847 1 209580461.8910 1 2 177949146.6755 2 3 218008515.3513 3	34591865.6637 1 18888926.9904 1 2 12970715.3199 2 3 14541009.1775 3	2878010040.7382 1 642279714.4488 1 2 405542933.8093 2 3 628932738.9092 3	7.3498 1 2.5323 1 2 2.1501 2 3 2.6341 3	0.4180 1 0.2282 1 2 0.1567 2 3 0.1757 3	34.7743 1 7.7605 1 2 4.9001 2 3 7.5992 3	5980071445.4444 72.2558 2 53.7485 48.1749 2 35.8356 1 1721847940.3840 1 1 20.8047 1 1 13.8710 1 2 1064487488.3967 2 2 12.8620 2 2 8.5754 2 3 1488067872.5797 3 3 17.9800 3 3 11.9877 3	72.2558 2 53.7485 1 20.8047 1 2 12.8620 2 3 17.9800 3	2 53.7485	48.1749 2 35.8356 1 13.8710 1 2 8.5754 2 3 11.9877 3	2 35.8356	1 18888926.9904 1 1 0.2282 1	1 73507319.4834 1 1 0.8882 1	1 126907415.0119 1 1 1.5334 1	1 12280954.9622 1 1 0.1484 1	1 160270191.6747 1 1 1.9365 1	1 136073142.4075 1 1 1.6441 1	1 153035387.7838 1 1 1.8491 1	2 1 1797253.3340 2 1 2 1 0.0217 2 1	1 234206172.2013 1 1 2.8299 1	1 114052531.1557 1 1 1.3781 1	1 690828645.3791 1 1 8.3471 1	1 0.2282 1	1 0.8882 1	1 1.5334 1	1 0.1484 1	1 1.9365 1	1 1.6441 1	1 1.8491 1	2 1 0.0217 2 1	1 2.8299 1	1 1.3781 1	1 8.3471 1	1 209580461.8910 1	1 18888926.9904 1	1 642279714.4488 1	1 2.5323 1	1 0.2282 1	1 7.7605 1	1 1721847940.3840 1 1 20.8047 1	1 20.8047 1	1 13.8710 1	2 12970715.3199 2 2 0.1567 2	2 41876004.2680 2 2 0.5060 2	2 92016206.7271 2 2 1.1118 2	2 8222851.0784 2 2 0.0994 2	2 42663864.8376 2 2 0.5155 2	2 136073142.4075 2 2 1.6441 2	2 111226221.6206 2 2 1.3439 2	2 2 1071730.7331 2 2 2 2 0.0129 2 2	2 129441384.7465 2 2 1.5640 2	2 63564538.9036 2 2 0.7680 2	2 425360827.7543 2 2 5.1395 2	2 0.1567 2	2 0.5060 2	2 1.1118 2	2 0.0994 2	2 0.5155 2	2 1.6441 2	2 1.3439 2	2 2 0.0129 2 2	2 1.5640 2	2 0.7680 2	2 5.1395 2	2 177949146.6755 2	2 12970715.3199 2	2 405542933.8093 2	2 2.1501 2	2 0.1567 2	2 4.9001 2	2 1064487488.3967 2 2 12.8620 2	2 12.8620 2	2 8.5754 2	3 14541009.1775 3 3 0.1757 3	3 72148289.1979 3 3 0.8718 3	3 97334707.6555 3 3 1.1761 3	3 14868823.8013 3 3 0.1797 3	3 54848573.3394 3 3 0.6627 3	3 145860226.1534 3 3 1.7624 3	3 147068739.0625 3 3 1.7770 3	2 3 35869885.8814 2 3 2 3 0.4334 2 3	3 262782656.8911 3 3 3.1751 3	3 71007925.6174 3 3 0.8580 3	3 571737035.8023 3 3 6.9082 3	3 0.1757 3	3 0.8718 3	3 1.1761 3	3 0.1797 3	3 0.6627 3	3 1.7624 3	3 1.7770 3	2 3 0.4334 2 3	3 3.1751 3	3 0.8580 3	3 6.9082 3	3 218008515.3513 3	3 14541009.1775 3	3 628932738.9092 3	3 2.6341 3	3 0.1757 3	3 7.5992 3	3 1488067872.5797 3 3 17.9800 3	3 17.9800 3	3 11.9877 3	124131927	18516398	423207686	38239797	158665059	133169021	36219074	2 507178 2	109481616	112353046	1.4999	0.2237	5.1135	0.4620	1.9171	1.6091	0.4376	2 0.0061 2	1.3228	1.3575	4	4	16	5	12	4	4	2 4 2	4	8	1 52.2879 1	2 32.6348 2	3 35.8280 3	0	0 00400000	155952	0 10000000	16384	0 7 000	16384	0 00400140	0 7 8000	0	151	604	253	830465776	0.0000	
