bpred	sim_num_insn	sim_num_refs	sim_num_loads	sim_num_stores	sim_num_branches	sim_elapsed_time	sim_inst_rate	sim_total_insn	sim_total_refs	sim_total_loads	sim_total_stores	sim_total_branches	sim_cycle	sim_IPC	sim_CPI	sim_exec_BW	sim_IPB	IFQ_count	IFQ_fcount	ifq_occupancy	ifq_rate	ifq_latency	ifq_full	RUU_count	RUU_fcount	ruu_occupancy	ruu_rate	ruu_latency	ruu_full	LSQ_count	LSQ_fcount	lsq_occupancy	lsq_rate	lsq_latency	lsq_full	sim_slip	avg_sim_slip	bpred_nottaken.lookups	bpred_nottaken.updates	bpred_nottaken.addr_hits	bpred_nottaken.dir_hits	bpred_nottaken.misses	bpred_nottaken.jr_hits	bpred_nottaken.jr_seen	bpred_nottaken.jr_non_ras_hits.PP	bpred_nottaken.jr_non_ras_seen.PP	bpred_nottaken.bpred_addr_rate	bpred_nottaken.bpred_dir_rate	bpred_nottaken.bpred_jr_rate	bpred_nottaken.bpred_jr_non_ras_rate.PP	bpred_nottaken.retstack_pushes	bpred_nottaken.retstack_pops	bpred_nottaken.used_ras.PP	bpred_nottaken.ras_hits.PP	bpred_nottaken.ras_rate.PP	il1.accesses	il1.hits	il1.misses	il1.replacements	il1.writebacks	il1.invalidations	il1.miss_rate	il1.repl_rate	il1.wb_rate	il1.inv_rate	dl1.accesses	dl1.hits	dl1.misses	dl1.replacements	dl1.writebacks	dl1.invalidations	dl1.miss_rate	dl1.repl_rate	dl1.wb_rate	dl1.inv_rate	ul2.accesses	ul2.hits	ul2.misses	ul2.replacements	ul2.writebacks	ul2.invalidations	ul2.miss_rate	ul2.repl_rate	ul2.wb_rate	ul2.inv_rate	itlb.accesses	itlb.hits	itlb.misses	itlb.replacements	itlb.writebacks	itlb.invalidations	itlb.miss_rate	itlb.repl_rate	itlb.wb_rate	itlb.inv_rate	dtlb.accesses	dtlb.hits	dtlb.misses	dtlb.replacements	dtlb.writebacks	dtlb.invalidations	dtlb.miss_rate	dtlb.repl_rate	dtlb.wb_rate	dtlb.inv_rate	rename_power	bpred_power	window_power	lsq_power	regfile_power	icache_power	dcache_power	dcache2_power	alu_power	falu_power	resultbus_power	clock_power	avg_rename_power	avg_bpred_power	avg_window_power	avg_lsq_power	avg_regfile_power	avg_icache_power	avg_dcache_power	avg_dcache2_power	avg_alu_power	avg_falu_power	avg_resultbus_power	avg_clock_power	fetch_stage_power	dispatch_stage_power	issue_stage_power	avg_fetch_power	avg_dispatch_power	avg_issue_power	total_power	avg_total_power_cycle	avg_total_power_cycle_nofp_nod2	avg_total_power_insn	avg_total_power_insn_nofp_nod2	rename_power_cc1	bpred_power_cc1	window_power_cc1	lsq_power_cc1	regfile_power_cc1	icache_power_cc1	dcache_power_cc1	dcache2_power_cc1	alu_power_cc1	resultbus_power_cc1	clock_power_cc1	avg_rename_power_cc1	avg_bpred_power_cc1	avg_window_power_cc1	avg_lsq_power_cc1	avg_regfile_power_cc1	avg_icache_power_cc1	avg_dcache_power_cc1	avg_dcache2_power_cc1	avg_alu_power_cc1	avg_resultbus_power_cc1	avg_clock_power_cc1	fetch_stage_power_cc1	dispatch_stage_power_cc1	issue_stage_power_cc1	avg_fetch_power_cc1	avg_dispatch_power_cc1	avg_issue_power_cc1	total_power_cycle_cc1	avg_total_power_cycle_cc1	avg_total_power_insn_cc1	rename_power_cc2	bpred_power_cc2	window_power_cc2	lsq_power_cc2	regfile_power_cc2	icache_power_cc2	dcache_power_cc2	dcache2_power_cc2	alu_power_cc2	resultbus_power_cc2	clock_power_cc2	avg_rename_power_cc2	avg_bpred_power_cc2	avg_window_power_cc2	avg_lsq_power_cc2	avg_regfile_power_cc2	avg_icache_power_cc2	avg_dcache_power_cc2	avg_dcache2_power_cc2	avg_alu_power_cc2	avg_resultbus_power_cc2	avg_clock_power_cc2	fetch_stage_power_cc2	dispatch_stage_power_cc2	issue_stage_power_cc2	avg_fetch_power_cc2	avg_dispatch_power_cc2	avg_issue_power_cc2	total_power_cycle_cc2	avg_total_power_cycle_cc2	avg_total_power_insn_cc2	rename_power_cc3	bpred_power_cc3	window_power_cc3	lsq_power_cc3	regfile_power_cc3	icache_power_cc3	dcache_power_cc3	dcache2_power_cc3	alu_power_cc3	resultbus_power_cc3	clock_power_cc3	avg_rename_power_cc3	avg_bpred_power_cc3	avg_window_power_cc3	avg_lsq_power_cc3	avg_regfile_power_cc3	avg_icache_power_cc3	avg_dcache_power_cc3	avg_dcache2_power_cc3	avg_alu_power_cc3	avg_resultbus_power_cc3	avg_clock_power_cc3	fetch_stage_power_cc3	dispatch_stage_power_cc3	issue_stage_power_cc3	avg_fetch_power_cc3	avg_dispatch_power_cc3	avg_issue_power_cc3	total_power_cycle_cc3	avg_total_power_cycle_cc3	avg_total_power_insn_cc3	total_rename_access	total_bpred_access	total_window_access	total_lsq_access	total_regfile_access	total_icache_access	total_dcache_access	total_dcache2_access	total_alu_access	total_resultbus_access	avg_rename_access	avg_bpred_access	avg_window_access	avg_lsq_access	avg_regfile_access	avg_icache_access	avg_dcache_access	avg_dcache2_access	avg_alu_access	avg_resultbus_access	max_rename_access	max_bpred_access	max_window_access	max_lsq_access	max_regfile_access	max_icache_access	max_dcache_access	max_dcache2_access	max_alu_access	max_resultbus_access	max_cycle_power_cc1	max_cycle_power_cc2	max_cycle_power_cc3	sim_invalid_addrs	ld_text_base	ld_text_size	ld_data_base	ld_data_size	ld_stack_base	ld_stack_size	ld_prog_entry	ld_environ_base	ld_target_big_endian	mem.page_count	mem.page_mem	mem.ptab_misses	mem.ptab_accesses	mem.ptab_miss_rate
nottaken	104948763	35867358	19824514	16042844.0000	18516398	123	853241.9756	179649014	59027358	33872070	25155288.0000	35925254	126291034	0.8310	1.2034	1.4225	5.6679	321738610	70238897	2.5476	1.4225	1.7909	0.5562	1032246949	26296198	8.1736	1.4225	5.7459	0.2082	298224088	6255795	2.3614	1.4225	1.6600	0.0495	1235295655 11.7705	11.7705	42309361	18516398	6516887	6516887	11999511	627	1553021	627	1553021	0.3520	0.3520	0.0004	0.0004	0	0	0	0		1 223373011	1 223189259	1 183752	1 183240	1 0	1 0	1 0.0008	1 0.0008	1 0.0000	1 0.0000	1 37588271	1 37246568	1 341703	1 341191	1 78232	1 0	1 0.0091	1 0.0091	1 0.0021	1 0.0000	2 603687	2 588223	2 15464	2 11368	2 6796	2 0	2 0.0256	2 0.0188	2 0.0113	2 0.0000	223373011	223372976	35	0	0	0	0.0000	0.0000	0.0000	0.0000	38556611	38556499	112	0	0	0	0.0000	0.0000	0.0000	0.0000	52785293.4857 0.4180 1 25079342.7589 1 1 0.1986 1 2 18636086.5014 2 2 0.1476 2 3 21406681.5819 3 3 0.1695 3	571230310.7194 4.5231 1 80063025.7979 1 1 0.6340 1 2 41876004.2657 2 2 0.3316 2 3 91005986.8591 3 3 0.7206 3	278385778.5107 2.2043 1 186613277.1754 1 1 1.4776 1 2 117325997.9738 2 2 0.9290 2 3 126113130.3376 3 3 0.9986 3	121640996.8235 0.9632 1 12733599.5441 1 1 0.1008 1 2 8740025.4950 2 2 0.0692 2 3 19559868.1162 3 3 0.1549 3	451171195.3233 3.5725 1 243348384.3188 1 1 1.9269 1 2 53801914.6379 2 2 0.4260 2 3 72482137.6281 3 3 0.5739 3	356985707.7898 2.8267 1 204101304.1854 1 1 1.6161 1 2 204101304.1854 2 2 1.6161 2 3 219389744.7681 3 3 1.7372 3	775661715.6079 6.1419 1 161811594.4273 1 1 1.2813 1 2 115430929.0340 2 2 0.9140 2 3 177292169.2637 3 3 1.4038 3	2 533737594.0068 2 2 4.2263 2 2 1 2194884.3738 2 1 2 1 0.0174 2 1 2 2 1275666.3560 2 2 2 2 0.0101 2 2 2 3 54430157.1552 2 3 2 3 0.4310 2 3	2392100632.4327 1803567934.4621 18.9412 14.2810 1 286602148.5817 1 1 2.2694 1 2 153832331.3284 2 2 1.2181 2 3 364382179.1007 3 3 2.8853 3	1803567934.4621 14.2810	290159067.3697 2.2975 1 139313470.6815 1 1 1.1031 1 2 75325359.2637 2 2 0.5964 2 3 90314476.6582 3 3 0.7151 3	3301403396.8815 26.1412 1 886038669.9541 1 1 7.0158 1 2 514743543.1366 2 2 4.0759 2 3 754865970.9077 3 3 5.9772 3	0.4180 1 0.1986 1 2 0.1476 2 3 0.1695 3	4.5231 1 0.6340 1 2 0.3316 2 3 0.7206 3	2.2043 1 1.4776 1 2 0.9290 2 3 0.9986 3	0.9632 1 0.1008 1 2 0.0692 2 3 0.1549 3	3.5725 1 1.9269 1 2 0.4260 2 3 0.5739 3	2.8267 1 1.6161 1 2 1.6161 2 3 1.7372 3	6.1419 1 1.2813 1 2 0.9140 2 3 1.4038 3	2 4.2263 2 2 1 0.0174 2 1 2 2 0.0101 2 2 2 3 0.4310 2 3	18.9412 1 2.2694 1 2 1.2181 2 3 2.8853 3	14.2810	2.2975 1 1.1031 1 2 0.5964 2 3 0.7151 3	26.1412 1 7.0158 1 2 4.0759 2 3 5.9772 3	928216018.5092 1 284164329.9833 1 2 245977308.4511 2 3 310395731.6272 3	52785293.4857 1 25079342.7589 1 2 18636086.5014 2 3 21406681.5819 3	4391685784.7514 1 789268974.7837 1 2 471930309.4509 2 3 832091980.6316 3	7.3498 1 2.2501 1 2 1.9477 2 3 2.4578 3	0.4180 1 0.1986 1 2 0.1476 2 3 0.1695 3	34.7743 1 6.2496 1 2 3.7368 2 3 6.5887 3	9125261688.9511 72.2558 2 53.7485 50.7949 2 37.7845 1 2227899701.7989 1 1 17.6410 1 1 12.4014 1 2 1305089162.1780 2 2 10.3340 2 2 7.2647 2 3 1991242502.3765 3 3 15.7671 3 3 11.0841 3	72.2558 2 53.7485 1 17.6410 1 2 10.3340 2 3 15.7671 3	2 53.7485	50.7949 2 37.7845 1 12.4014 1 2 7.2647 2 3 11.0841 3	2 37.7845	1 25079342.7589 1 1 0.1986 1	1 80063025.7979 1 1 0.6340 1	1 186613277.1754 1 1 1.4776 1	1 12733599.5441 1 1 0.1008 1	1 243348384.3188 1 1 1.9269 1	1 204101304.1854 1 1 1.6161 1	1 161811594.4273 1 1 1.2813 1	2 1 2194884.3738 2 1 2 1 0.0174 2 1	1 286602148.5817 1 1 2.2694 1	1 139313470.6815 1 1 1.1031 1	1 886038669.9541 1 1 7.0158 1	1 0.1986 1	1 0.6340 1	1 1.4776 1	1 0.1008 1	1 1.9269 1	1 1.6161 1	1 1.2813 1	2 1 0.0174 2 1	1 2.2694 1	1 1.1031 1	1 7.0158 1	1 284164329.9833 1	1 25079342.7589 1	1 789268974.7837 1	1 2.2501 1	1 0.1986 1	1 6.2496 1	1 2227899701.7989 1 1 17.6410 1	1 17.6410 1	1 12.4014 1	2 18636086.5014 2 2 0.1476 2	2 41876004.2657 2 2 0.3316 2	2 117325997.9738 2 2 0.9290 2	2 8740025.4950 2 2 0.0692 2	2 53801914.6379 2 2 0.4260 2	2 204101304.1854 2 2 1.6161 2	2 115430929.0340 2 2 0.9140 2	2 2 1275666.3560 2 2 2 2 0.0101 2 2	2 153832331.3284 2 2 1.2181 2	2 75325359.2637 2 2 0.5964 2	2 514743543.1366 2 2 4.0759 2	2 0.1476 2	2 0.3316 2	2 0.9290 2	2 0.0692 2	2 0.4260 2	2 1.6161 2	2 0.9140 2	2 2 0.0101 2 2	2 1.2181 2	2 0.5964 2	2 4.0759 2	2 245977308.4511 2	2 18636086.5014 2	2 471930309.4509 2	2 1.9477 2	2 0.1476 2	2 3.7368 2	2 1305089162.1780 2 2 10.3340 2	2 10.3340 2	2 7.2647 2	3 21406681.5819 3 3 0.1695 3	3 91005986.8591 3 3 0.7206 3	3 126113130.3376 3 3 0.9986 3	3 19559868.1162 3 3 0.1549 3	3 72482137.6281 3 3 0.5739 3	3 219389744.7681 3 3 1.7372 3	3 177292169.2637 3 3 1.4038 3	2 3 54430157.1552 2 3 2 3 0.4310 2 3	3 364382179.1007 3 3 2.8853 3	3 90314476.6582 3 3 0.7151 3	3 754865970.9077 3 3 5.9772 3	3 0.1695 3	3 0.7206 3	3 0.9986 3	3 0.1549 3	3 0.5739 3	3 1.7372 3	3 1.4038 3	2 3 0.4310 2 3	3 2.8853 3	3 0.7151 3	3 5.9772 3	3 310395731.6272 3	3 21406681.5819 3	3 832091980.6316 3	3 2.4578 3	3 0.1695 3	3 6.5887 3	3 1991242502.3765 3 3 15.7671 3	3 15.7671 3	3 11.0841 3	178350482	18516398	553001709	40431470	201359688	223373011	37588271	2 603687 2	130203329	132081272	1.4122	0.1466	4.3788	0.3201	1.5944	1.7687	0.2976	2 0.0048 2	1.0310	1.0458	4	3	16	5	12	4	4	2 4 2	4	8	1 50.3083 1	2 31.6004 2	3 34.8244 3	0	0 00400000	155952	0 10000000	16384	0 7 000	16384	0 00400140	0 7 8000	0	151	604	28478	1206559599	0.0000	
taken	104948763	35867358	19824514	16042844.0000	18516398	128	819912.2109	196276980	65402150	38739426	26662724.0000	39700611	124334808	0.8441	1.1847	1.5786	5.6679	349473700	87314060	2.8107	1.5786	1.7805	0.7022	1069556577	30932725	8.6022	1.5786	5.4492	0.2488	314405020	6797808	2.5287	1.5786	1.6018	0.0547	1234577770 11.7636	11.7636																			1 244174336	1 243954577	1 219759	1 219247	1 0	1 0	1 0.0009	1 0.0009	1 0.0000	1 0.0000	1 38138154	1 37771639	1 366515	1 366003	1 78847	1 0	1 0.0096	1 0.0096	1 0.0021	1 0.0000	2 665121	2 649656	2 15465	2 11369	2 6800	2 0	2 0.0233	2 0.0171	2 0.0102	2 0.0000	244174336	244174301	35	0	0	0	0.0000	0.0000	0.0000	0.0000	39065578	39065466	112	0	0	0	0.0000	0.0000	0.0000	0.0000	51967658.5337 0.4180 1 23736112.4457 1 1 0.1909 1 2 20373565.4768 2 2 0.1639 2 3 23196720.1007 3 3 0.1866 3	562382053.3253 4.5231 1 78872125.0651 1 1 0.6344 1 2 41876004.2660 2 2 0.3368 2 3 90240863.3986 3 3 0.7258 3	274073631.5539 2.2043 1 184173864.2413 1 1 1.4813 1 2 123213720.0429 2 2 0.9910 2 3 132054600.1921 3 3 1.0621 3	119756799.0831 0.9632 1 12655723.8620 1 1 0.1018 1 2 8986599.2888 2 2 0.0723 2 3 19602777.3150 3 3 0.1577 3	444182632.5258 3.5725 1 236362056.9976 1 1 1.9010 1 2 55750487.2582 2 2 0.4484 2 3 74382734.4393 3 3 0.5982 3	351456061.6499 2.8267 1 194604355.1336 1 1 1.5652 1 2 194604355.1336 2 2 1.5652 2 3 210289525.9977 3 3 1.6913 3	763646851.4702 6.1419 1 155896281.0294 1 1 1.2538 1 2 117119580.9415 2 2 0.9420 2 3 178385654.7709 3 3 1.4347 3	2 525470092.1393 2 2 4.2263 2 2 1 2448653.8338 2 1 2 1 0.0197 2 1 2 2 1405484.1041 2 2 2 2 0.0113 2 2 2 3 53707977.9420 2 3 2 3 0.4320 2 3	2355047412.5257 1775630983.0042 18.9412 14.2810 1 272412462.5320 1 1 2.1910 1 2 157834843.6093 2 2 1.2694 2 3 366098337.9474 3 3 2.9445 3	1775630983.0042 14.2810	285664554.2712 2.2975 1 136978657.2595 1 1 1.1017 1 2 77297062.3214 2 2 0.6217 2 3 92077575.2272 3 3 0.7406 3	3250265236.3459 26.1412 1 857198159.1015 1 1 6.8943 1 2 519847847.4936 2 2 4.1810 2 3 757887538.6944 3 3 6.0955 3	0.4180 1 0.1909 1 2 0.1639 2 3 0.1866 3	4.5231 1 0.6344 1 2 0.3368 2 3 0.7258 3	2.2043 1 1.4813 1 2 0.9910 2 3 1.0621 3	0.9632 1 0.1018 1 2 0.0723 2 3 0.1577 3	3.5725 1 1.9010 1 2 0.4484 2 3 0.5982 3	2.8267 1 1.5652 1 2 1.5652 2 3 1.6913 3	6.1419 1 1.2538 1 2 0.9420 2 3 1.4347 3	2 4.2263 2 2 1 0.0197 2 1 2 2 0.0113 2 2 2 3 0.4320 2 3	18.9412 1 2.1910 1 2 1.2694 2 3 2.9445 3	14.2810	2.2975 1 1.1017 1 2 0.6217 2 3 0.7406 3	26.1412 1 6.8943 1 2 4.1810 2 3 6.0955 3	913838114.9752 1 273476480.1986 1 2 236480359.3996 2 3 300530389.3962 3	51967658.5337 1 23736112.4457 1 2 20373565.4768 2 3 23196720.1007 3	4323659341.0435 1 764565642.7580 1 2 485857290.3080 2 3 841926923.3946 3	7.3498 1 2.1995 1 2 1.9020 2 3 2.4171 3	0.4180 1 0.1909 1 2 0.1639 2 3 0.1866 3	34.7743 1 6.1492 1 2 3.9077 2 3 6.7714 3	8983912983.4240 72.2558 2 53.7485 45.7716 2 34.0479 1 2155338451.5016 1 1 17.3350 1 1 10.9811 1 2 1318309549.9362 2 2 10.6029 2 2 6.7166 2 3 1997924306.0252 3 3 16.0689 3 3 10.1791 3	72.2558 2 53.7485 1 17.3350 1 2 10.6029 2 3 16.0689 3	2 53.7485	45.7716 2 34.0479 1 10.9811 1 2 6.7166 2 3 10.1791 3	2 34.0479	1 23736112.4457 1 1 0.1909 1	1 78872125.0651 1 1 0.6344 1	1 184173864.2413 1 1 1.4813 1	1 12655723.8620 1 1 0.1018 1	1 236362056.9976 1 1 1.9010 1	1 194604355.1336 1 1 1.5652 1	1 155896281.0294 1 1 1.2538 1	2 1 2448653.8338 2 1 2 1 0.0197 2 1	1 272412462.5320 1 1 2.1910 1	1 136978657.2595 1 1 1.1017 1	1 857198159.1015 1 1 6.8943 1	1 0.1909 1	1 0.6344 1	1 1.4813 1	1 0.1018 1	1 1.9010 1	1 1.5652 1	1 1.2538 1	2 1 0.0197 2 1	1 2.1910 1	1 1.1017 1	1 6.8943 1	1 273476480.1986 1	1 23736112.4457 1	1 764565642.7580 1	1 2.1995 1	1 0.1909 1	1 6.1492 1	1 2155338451.5016 1 1 17.3350 1	1 17.3350 1	1 10.9811 1	2 20373565.4768 2 2 0.1639 2	2 41876004.2660 2 2 0.3368 2	2 123213720.0429 2 2 0.9910 2	2 8986599.2888 2 2 0.0723 2	2 55750487.2582 2 2 0.4484 2	2 194604355.1336 2 2 1.5652 2	2 117119580.9415 2 2 0.9420 2	2 2 1405484.1041 2 2 2 2 0.0113 2 2	2 157834843.6093 2 2 1.2694 2	2 77297062.3214 2 2 0.6217 2	2 519847847.4936 2 2 4.1810 2	2 0.1639 2	2 0.3368 2	2 0.9910 2	2 0.0723 2	2 0.4484 2	2 1.5652 2	2 0.9420 2	2 2 0.0113 2 2	2 1.2694 2	2 0.6217 2	2 4.1810 2	2 236480359.3996 2	2 20373565.4768 2	2 485857290.3080 2	2 1.9020 2	2 0.1639 2	2 3.9077 2	2 1318309549.9362 2 2 10.6029 2	2 10.6029 2	2 6.7166 2	3 23196720.1007 3 3 0.1866 3	3 90240863.3986 3 3 0.7258 3	3 132054600.1921 3 3 1.0621 3	3 19602777.3150 3 3 0.1577 3	3 74382734.4393 3 3 0.5982 3	3 210289525.9977 3 3 1.6913 3	3 178385654.7709 3 3 1.4347 3	2 3 53707977.9420 2 3 2 3 0.4320 2 3	3 366098337.9474 3 3 2.9445 3	3 92077575.2272 3 3 0.7406 3	3 757887538.6944 3 3 6.0955 3	3 0.1866 3	3 0.7258 3	3 1.0621 3	3 0.1577 3	3 0.5982 3	3 1.6913 3	3 1.4347 3	2 3 0.4320 2 3	3 2.9445 3	3 0.7406 3	3 6.0955 3	3 300530389.3962 3	3 23196720.1007 3	3 841926923.3946 3	3 2.4171 3	3 0.1866 3	3 6.7714 3	3 1997924306.0252 3 3 16.0689 3	3 16.0689 3	3 10.1791 3	194978448	18516398	584311153	41545669	208839655	244174336	38138154	2 665121 2	133677084	135463432	1.5682	0.1489	4.6995	0.3341	1.6797	1.9638	0.3067	2 0.0053 2	1.0751	1.0895	4	4	17	5	12	4	4	2 4 2	4	8	1 50.2396 1	2 31.3828 2	3 34.6151 3	0	0 00400000	155952	0 10000000	16384	0 7 000	16384	0 00400140	0 7 8000	0	151	604	28467	1294809772	0.0000	
perfect	104948763	35867358	19824514	16042844.0000	18516398	78	1345496.9615	104948762	35867358	19824514	16042844.0000	18516398	67333778	1.5586	0.6416	1.5586	5.6679	266051635	66485144	3.9512	1.5586	2.5351	0.9874	994222946	45688244	14.7656	1.5586	9.4734	0.6785	291306168	5618088	4.3263	1.5586	2.7757	0.0834	1426345222 13.5909	13.5909																			1 125342365	1 125208028	1 134337	1 133825	1 0	1 0	1 0.0011	1 0.0011	1 0.0000	1 0.0000	1 34947820	1 34665213	1 282607	1 282095	1 77112	1 0	1 0.0081	1 0.0081	1 0.0022	1 0.0000	2 494056	2 479125	2 14931	2 10835	2 6547	2 0	2 0.0302	2 0.0219	2 0.0133	2 0.0000	125342365	125342330	35	0	0	0	0.0000	0.0000	0.0000	0.0000	35867358	35867246	112	0	0	0	0.0000	0.0000	0.0000	0.0000	28143195.2904 0.4180 1 16559736.1565 1 1 0.2459 1 2 10966238.8423 2 2 0.1629 2 3 12124584.7493 3 3 0.1801 3	304559188.7098 4.5231 1 0.0000 1 1 0.0000 1 2 0.0000 2 2 0.0000 2 3 30455918.8900 3 3 0.4523 3	148425154.3088 2.2043 1 108799415.6669 1 1 1.6158 1 2 83247211.8134 2 2 1.2363 2 3 87057996.9579 3 3 1.2929 3	64854547.5407 0.9632 1 11547991.4846 1 1 0.1715 1 2 7833600.7595 2 2 0.1163 2 3 13069979.0243 3 3 0.1941 3	240548043.4366 3.5725 1 132260547.3351 1 1 1.9643 1 2 39820270.2122 2 2 0.5914 2 3 49408568.1457 3 3 0.7338 3	190331772.3812 2.8267 1 112245532.3296 1 1 1.6670 1 2 112245532.3296 2 2 1.6670 2 3 120054156.3326 3 3 1.7830 3	413554566.0402 6.1419 1 143946591.2281 1 1 2.1378 1 2 107322290.2495 2 2 1.5939 2 3 134729431.7841 3 3 2.0009 3	2 284569438.5466 2 2 4.2263 2 2 1 1747616.0174 2 1 2 1 0.0260 2 1 2 2 1044002.3011 2 2 2 2 0.0155 2 2 2 3 29326531.6883 2 3 2 3 0.4355 2 3	1275380901.8485 961596710.8066 18.9412 14.2810 1 214745080.2371 1 1 3.1893 1 2 121400382.4630 2 2 1.8030 2 3 227463964.1757 3 3 3.3782 3	961596710.8066 14.2810	154702242.7343 2.2975 1 104426759.6972 1 1 1.5509 1 2 59919590.4253 2 2 0.8899 2 3 64760804.4128 3 3 0.9618 3	1760188004.5553 26.1412 1 565506598.8561 1 1 8.3986 1 2 357442910.8030 2 2 5.3085 2 3 476126351.4985 3 3 7.0711 3	0.4180 1 0.2459 1 2 0.1629 2 3 0.1801 3	4.5231 1 0.0000 1 2 0.0000 2 3 0.4523 3	2.2043 1 1.6158 1 2 1.2363 2 3 1.2929 3	0.9632 1 0.1715 1 2 0.1163 2 3 0.1941 3	3.5725 1 1.9643 1 2 0.5914 2 3 0.7338 3	2.8267 1 1.6670 1 2 1.6670 2 3 1.7830 3	6.1419 1 2.1378 1 2 1.5939 2 3 2.0009 3	2 4.2263 2 2 1 0.0260 2 1 2 2 0.0155 2 2 2 3 0.4355 2 3	18.9412 1 3.1893 1 2 1.8030 2 3 3.3782 3	14.2810	2.2975 1 1.5509 1 2 0.8899 2 3 0.9618 3	26.1412 1 8.3986 1 2 5.3085 2 3 7.0711 3	494890961.0910 1 112245532.3296 1 2 112245532.3296 2 3 150510075.2227 3	28143195.2904 1 16559736.1565 1 2 10966238.8423 2 3 12124584.7493 3	2341486851.0191 1 585213454.3313 1 2 380767078.0120 2 3 556408708.0432 3	7.3498 1 1.6670 1 2 1.6670 2 3 2.2353 3	0.4180 1 0.2459 1 2 0.1629 2 3 0.1801 3	34.7743 1 8.6912 1 2 5.6549 2 3 8.2634 3	4865257055.3923 72.2558 2 53.7485 46.3584 2 34.4844 1 1411785869.0086 1 1 20.9670 1 1 13.4521 1 2 901242030.1990 2 2 13.3847 2 2 8.5874 2 3 1244578287.6593 3 3 18.4837 3 3 11.8589 3	72.2558 2 53.7485 1 20.9670 1 2 13.3847 2 3 18.4837 3	2 53.7485	46.3584 2 34.4844 1 13.4521 1 2 8.5874 2 3 11.8589 3	2 34.4844	1 16559736.1565 1 1 0.2459 1	1 0.0000 1 1 0.0000 1	1 108799415.6669 1 1 1.6158 1	1 11547991.4846 1 1 0.1715 1	1 132260547.3351 1 1 1.9643 1	1 112245532.3296 1 1 1.6670 1	1 143946591.2281 1 1 2.1378 1	2 1 1747616.0174 2 1 2 1 0.0260 2 1	1 214745080.2371 1 1 3.1893 1	1 104426759.6972 1 1 1.5509 1	1 565506598.8561 1 1 8.3986 1	1 0.2459 1	1 0.0000 1	1 1.6158 1	1 0.1715 1	1 1.9643 1	1 1.6670 1	1 2.1378 1	2 1 0.0260 2 1	1 3.1893 1	1 1.5509 1	1 8.3986 1	1 112245532.3296 1	1 16559736.1565 1	1 585213454.3313 1	1 1.6670 1	1 0.2459 1	1 8.6912 1	1 1411785869.0086 1 1 20.9670 1	1 20.9670 1	1 13.4521 1	2 10966238.8423 2 2 0.1629 2	2 0.0000 2 2 0.0000 2	2 83247211.8134 2 2 1.2363 2	2 7833600.7595 2 2 0.1163 2	2 39820270.2122 2 2 0.5914 2	2 112245532.3296 2 2 1.6670 2	2 107322290.2495 2 2 1.5939 2	2 2 1044002.3011 2 2 2 2 0.0155 2 2	2 121400382.4630 2 2 1.8030 2	2 59919590.4253 2 2 0.8899 2	2 357442910.8030 2 2 5.3085 2	2 0.1629 2	2 0.0000 2	2 1.2363 2	2 0.1163 2	2 0.5914 2	2 1.6670 2	2 1.5939 2	2 2 0.0155 2 2	2 1.8030 2	2 0.8899 2	2 5.3085 2	2 112245532.3296 2	2 10966238.8423 2	2 380767078.0120 2	2 1.6670 2	2 0.1629 2	2 5.6549 2	2 901242030.1990 2 2 13.3847 2	2 13.3847 2	2 8.5874 2	3 12124584.7493 3 3 0.1801 3	3 30455918.8900 3 3 0.4523 3	3 87057996.9579 3 3 1.2929 3	3 13069979.0243 3 3 0.1941 3	3 49408568.1457 3 3 0.7338 3	3 120054156.3326 3 3 1.7830 3	3 134729431.7841 3 3 2.0009 3	2 3 29326531.6883 2 3 2 3 0.4355 2 3	3 227463964.1757 3 3 3.3782 3	3 64760804.4128 3 3 0.9618 3	3 476126351.4985 3 3 7.0711 3	3 0.1801 3	3 0.4523 3	3 1.2929 3	3 0.1941 3	3 0.7338 3	3 1.7830 3	3 2.0009 3	2 3 0.4355 2 3	3 3.3782 3	3 0.9618 3	3 7.0711 3	3 150510075.2227 3	3 12124584.7493 3	3 556408708.0432 3	3 2.2353 3	3 0.1801 3	3 8.2634 3	3 1244578287.6593 3 3 18.4837 3	3 18.4837 3	3 11.8589 3	104948750	0	380176579	36786896	148303872	125342365	34947820	2 494056 2	102612035	106256866	1.5586	0.0000	5.6461	0.5463	2.2025	1.8615	0.5190	2 0.0073 2	1.5239	1.5781	4	0	16	5	12	4	4	2 4 2	4	8	1 47.8668 1	2 31.2078 2	3 34.7110 3	0	0 00400000	155952	0 10000000	16384	0 7 000	16384	0 00400140	0 7 8000	0	151	604	151	791269082	0.0000	
bimod	104948763	35867358	19824514	16042844.0000	18516398	98	1070905.7449	135261008	47333825	26019039	21314786.0000	26307089	90329043	1.1618	0.8607	1.4974	5.6679	285520555	64981045	3.1609	1.4974	2.1109	0.7194	1032307517	44487987	11.4283	1.4974	7.6320	0.4925	304062064	6928036	3.3662	1.4974	2.2480	0.0767	1372624124 13.0790	13.0790																			1 150362986	1 150247405	1 115581	1 115069	1 0	1 0	1 0.0008	1 0.0008	1 0.0000	1 0.0000	1 36620748	1 36306567	1 314181	1 313669	1 77633	1 0	1 0.0086	1 0.0086	1 0.0021	1 0.0000	2 507395	2 492309	2 15086	2 10990	2 6645	2 0	2 0.0297	2 0.0217	2 0.0131	2 0.0000	150362986	150362951	35	0	0	0	0.0000	0.0000	0.0000	0.0000	37538829	37538717	112	0	0	0	0.0000	0.0000	0.0000	0.0000	37754422.4167 0.4180 1 20299168.4562 1 1 0.2247 1 2 14133537.1003 2 2 0.1565 2 3 15879062.4851 3 3 0.1758 3	408569679.4434 4.5231 1 74323458.8404 1 1 0.8228 1 2 41876004.2677 2 2 0.4636 2 3 75481752.3689 3 3 0.8356 3	199114063.4583 2.2043 1 137025060.3457 1 1 1.5170 1 2 96191326.5150 2 2 1.0649 2 3 102137252.2264 3 3 1.1307 3	87003126.6684 0.9632 1 12492221.4745 1 1 0.1383 1 2 8340582.7400 2 2 0.0923 2 3 15692612.5861 3 3 0.1737 3	322697985.9775 3.5725 1 171400444.8791 1 1 1.8975 1 2 44638270.5752 2 2 0.4942 2 3 58147373.0829 3 3 0.6437 3	255332276.9255 2.8267 1 149873846.9582 1 1 1.6592 1 2 149873846.9582 2 2 1.6592 2 3 160419690.0448 3 3 1.7759 3	554788239.8514 6.1419 1 155217341.5183 1 1 1.7184 1 2 112459734.1436 2 2 1.2450 2 3 152746681.9255 3 3 1.6910 3	2 381753197.6477 2 2 4.2263 2 2 1 1797785.8416 2 1 2 1 0.0199 2 1 2 2 1072189.2814 2 2 2 2 0.0119 2 2 2 3 39068107.9908 2 3 2 3 0.4325 2 3	1710938250.9814 1289993124.1392 18.9412 14.2810 1 243068881.3332 1 1 2.6909 1 2 133290070.3203 2 2 1.4756 2 3 280077006.6655 3 3 3.1006 3	1289993124.1392 14.2810	207534850.5651 2.2975 1 118693102.4117 1 1 1.3140 1 2 65785625.0563 2 2 0.7283 2 3 74515034.2850 3 3 0.8249 3	2361312595.0318 26.1412 1 723885173.6942 1 1 8.0139 1 2 443501189.1837 2 2 4.9098 2 3 606234933.7039 3 3 6.7114 3	0.4180 1 0.2247 1 2 0.1565 2 3 0.1758 3	4.5231 1 0.8228 1 2 0.4636 2 3 0.8356 3	2.2043 1 1.5170 1 2 1.0649 2 3 1.1307 3	0.9632 1 0.1383 1 2 0.0923 2 3 0.1737 3	3.5725 1 1.8975 1 2 0.4942 2 3 0.6437 3	2.8267 1 1.6592 1 2 1.6592 2 3 1.7759 3	6.1419 1 1.7184 1 2 1.2450 2 3 1.6910 3	2 4.2263 2 2 1 0.0199 2 1 2 2 0.0119 2 2 2 3 0.4325 2 3	18.9412 1 2.6909 1 2 1.4756 2 3 3.1006 3	14.2810	2.2975 1 1.3140 1 2 0.7283 2 3 0.8249 3	26.1412 1 8.0139 1 2 4.9098 2 3 6.7114 3	663901956.3689 1 224197305.7985 1 2 191749851.2259 2 3 235901442.4137 3	37754422.4167 1 20299168.4562 1 2 14133537.1003 2 3 15879062.4851 3	3141131729.1723 1 668294392.9249 1 2 417139528.0565 2 3 664236695.6792 3	7.3498 1 2.4820 1 2 2.1228 2 3 2.6116 3	0.4180 1 0.2247 1 2 0.1565 2 3 0.1758 3	34.7743 1 7.3984 1 2 4.6180 2 3 7.3535 3	6526798688.9672 72.2558 2 53.7485 48.2534 2 35.8940 1 1808076485.7529 1 1 20.0166 1 1 13.3673 1 2 1111162376.1416 2 2 12.3013 2 2 8.2149 2 3 1580399507.3649 3 3 17.4960 3 3 11.6841 3	72.2558 2 53.7485 1 20.0166 1 2 12.3013 2 3 17.4960 3	2 53.7485	48.2534 2 35.8940 1 13.3673 1 2 8.2149 2 3 11.6841 3	2 35.8940	1 20299168.4562 1 1 0.2247 1	1 74323458.8404 1 1 0.8228 1	1 137025060.3457 1 1 1.5170 1	1 12492221.4745 1 1 0.1383 1	1 171400444.8791 1 1 1.8975 1	1 149873846.9582 1 1 1.6592 1	1 155217341.5183 1 1 1.7184 1	2 1 1797785.8416 2 1 2 1 0.0199 2 1	1 243068881.3332 1 1 2.6909 1	1 118693102.4117 1 1 1.3140 1	1 723885173.6942 1 1 8.0139 1	1 0.2247 1	1 0.8228 1	1 1.5170 1	1 0.1383 1	1 1.8975 1	1 1.6592 1	1 1.7184 1	2 1 0.0199 2 1	1 2.6909 1	1 1.3140 1	1 8.0139 1	1 224197305.7985 1	1 20299168.4562 1	1 668294392.9249 1	1 2.4820 1	1 0.2247 1	1 7.3984 1	1 1808076485.7529 1 1 20.0166 1	1 20.0166 1	1 13.3673 1	2 14133537.1003 2 2 0.1565 2	2 41876004.2677 2 2 0.4636 2	2 96191326.5150 2 2 1.0649 2	2 8340582.7400 2 2 0.0923 2	2 44638270.5752 2 2 0.4942 2	2 149873846.9582 2 2 1.6592 2	2 112459734.1436 2 2 1.2450 2	2 2 1072189.2814 2 2 2 2 0.0119 2 2	2 133290070.3203 2 2 1.4756 2	2 65785625.0563 2 2 0.7283 2	2 443501189.1837 2 2 4.9098 2	2 0.1565 2	2 0.4636 2	2 1.0649 2	2 0.0923 2	2 0.4942 2	2 1.6592 2	2 1.2450 2	2 2 0.0119 2 2	2 1.4756 2	2 0.7283 2	2 4.9098 2	2 191749851.2259 2	2 14133537.1003 2	2 417139528.0565 2	2 2.1228 2	2 0.1565 2	2 4.6180 2	2 1111162376.1416 2 2 12.3013 2	2 12.3013 2	2 8.2149 2	3 15879062.4851 3 3 0.1758 3	3 75481752.3689 3 3 0.8356 3	3 102137252.2264 3 3 1.1307 3	3 15692612.5861 3 3 0.1737 3	3 58147373.0829 3 3 0.6437 3	3 160419690.0448 3 3 1.7759 3	3 152746681.9255 3 3 1.6910 3	2 3 39068107.9908 2 3 2 3 0.4325 2 3	3 280077006.6655 3 3 3.1006 3	3 74515034.2850 3 3 0.8249 3	3 606234933.7039 3 3 6.7114 3	3 0.1758 3	3 0.8356 3	3 1.1307 3	3 0.1737 3	3 0.6437 3	3 1.7759 3	3 1.6910 3	2 3 0.4325 2 3	3 3.1006 3	3 0.8249 3	3 6.7114 3	3 235901442.4137 3	3 15879062.4851 3	3 664236695.6792 3	3 2.6116 3	3 0.1758 3	3 7.3535 3	3 1580399507.3649 3 3 17.4960 3	3 17.4960 3	3 11.6841 3	135260327	18516398	445074584	38681250	167331582	150363794	36620748	2 507395 2	112784499	116107598	1.4974	0.2050	4.9273	0.4282	1.8525	1.6646	0.4054	2 0.0056 2	1.2486	1.2854	4	4	16	5	12	4	4	2 4 2	4	8	1 51.4979 1	2 32.9816 2	3 36.0921 3	0	0 00400000	155952	0 10000000	16384	0 7 000	16384	0 00400140	0 7 8000	0	151	604	268	901109539	0.0000	
2lev	104948763	35867358	19824514	16042844.0000	18516398	96	1093216.2812	128613679	43133364	26076996	17056368.0000	25789434	86307473	1.2160	0.8224	1.4902	5.6679	279773636	63450083	3.2416	1.4902	2.1753	0.7352	1037070522	45682372	12.0160	1.4902	8.0635	0.5293	302773814	5797262	3.5081	1.4902	2.3541	0.0672	1388471523 13.2300	13.2300																			1 139395061	1 139269738	1 125323	1 124811	1 0	1 0	1 0.0009	1 0.0009	1 0.0000	1 0.0000	1 36927433	1 36608041	1 319392	1 318880	1 77831	1 0	1 0.0086	1 0.0086	1 0.0021	1 0.0000	2 522546	2 507253	2 15293	2 11197	2 6721	2 0	2 0.0293	2 0.0214	2 0.0129	2 0.0000	139395061	139395026	35	0	0	0	0.0000	0.0000	0.0000	0.0000	37859205	37859093	112	0	0	0	0.0000	0.0000	0.0000	0.0000	36073544.9545 0.4180 1 19444829.4469 1 1 0.2253 1 2 13435146.1342 2 2 0.1557 2 3 15098017.6745 3 3 0.1749 3	390379609.9131 4.5231 1 74105161.4527 1 1 0.8586 1 2 41876004.2677 2 2 0.4852 2 3 73672277.9256 3 3 0.8536 3	190249238.6185 2.2043 1 131354302.5747 1 1 1.5219 1 2 95086108.3490 2 2 1.1017 2 3 100747506.4925 3 3 1.1673 3	83129630.9134 0.9632 1 12369052.1454 1 1 0.1433 1 2 8438817.1228 2 2 0.0978 2 3 15412671.5977 3 3 0.1786 3	308331039.3725 3.5725 1 166513605.1474 1 1 1.9293 1 2 43732415.7436 2 2 0.5067 2 3 56531112.8803 3 3 0.6550 3	243964541.9130 2.8267 1 141173041.0300 1 1 1.6357 1 2 141173041.0300 2 2 1.6357 2 3 151452191.1779 3 3 1.7548 3	530088324.2127 6.1419 1 154348010.5209 1 1 1.7884 1 2 113401542.1472 2 2 1.3139 2 3 151274472.1810 3 3 1.7527 3	2 364757033.8684 2 2 4.2263 2 2 1 1852143.8803 2 1 2 1 0.0215 2 1 2 2 1104205.2449 2 2 2 2 0.0128 2 2 2 3 37395801.2294 2 3 2 3 0.4333 2 3	1634764987.9835 1232560902.1593 18.9412 14.2810 1 238081598.0095 1 1 2.7585 1 2 132552667.0653 2 2 1.5358 2 3 272221005.4333 3 3 3.1541 3	1232560902.1593 14.2810	198295120.9654 2.2975 1 116525326.1604 1 1 1.3501 1 2 65172988.1354 2 2 0.7551 2 3 73188022.3553 3 3 0.8480 3	2256183794.8496 26.1412 1 705777321.5245 1 1 8.1775 1 2 435231160.1882 2 2 5.0428 2 3 589358739.4750 3 3 6.8286 3	0.4180 1 0.2253 1 2 0.1557 2 3 0.1749 3	4.5231 1 0.8586 1 2 0.4852 2 3 0.8536 3	2.2043 1 1.5219 1 2 1.1017 2 3 1.1673 3	0.9632 1 0.1433 1 2 0.0978 2 3 0.1786 3	3.5725 1 1.9293 1 2 0.5067 2 3 0.6550 3	2.8267 1 1.6357 1 2 1.6357 2 3 1.7548 3	6.1419 1 1.7884 1 2 1.3139 2 3 1.7527 3	2 4.2263 2 2 1 0.0215 2 1 2 2 0.0128 2 2 2 3 0.4333 2 3	18.9412 1 2.7585 1 2 1.5358 2 3 3.1541 3	14.2810	2.2975 1 1.3501 1 2 0.7551 2 3 0.8480 3	26.1412 1 8.1775 1 2 5.0428 2 3 6.8286 3	634344151.8261 1 215278202.4826 1 2 183049045.2977 2 3 225124469.1034 3	36073544.9545 1 19444829.4469 1 2 13435146.1342 2 3 15098017.6745 3	3001284336.5619 1 654530433.2912 1 2 415756328.0646 2 3 650239479.2891 3	7.3498 1 2.4943 1 2 2.1209 2 3 2.6084 3	0.4180 1 0.2253 1 2 0.1557 2 3 0.1749 3	34.7743 1 7.5837 1 2 4.8172 2 3 7.5340 3	6236216867.5646 72.2558 2 53.7485 48.4880 2 36.0685 1 1761544391.8927 1 1 20.4101 1 1 13.6964 1 2 1091204095.4283 2 2 12.6432 2 2 8.4844 2 3 1536351818.4224 3 3 17.8009 3 3 11.9455 3	72.2558 2 53.7485 1 20.4101 1 2 12.6432 2 3 17.8009 3	2 53.7485	48.4880 2 36.0685 1 13.6964 1 2 8.4844 2 3 11.9455 3	2 36.0685	1 19444829.4469 1 1 0.2253 1	1 74105161.4527 1 1 0.8586 1	1 131354302.5747 1 1 1.5219 1	1 12369052.1454 1 1 0.1433 1	1 166513605.1474 1 1 1.9293 1	1 141173041.0300 1 1 1.6357 1	1 154348010.5209 1 1 1.7884 1	2 1 1852143.8803 2 1 2 1 0.0215 2 1	1 238081598.0095 1 1 2.7585 1	1 116525326.1604 1 1 1.3501 1	1 705777321.5245 1 1 8.1775 1	1 0.2253 1	1 0.8586 1	1 1.5219 1	1 0.1433 1	1 1.9293 1	1 1.6357 1	1 1.7884 1	2 1 0.0215 2 1	1 2.7585 1	1 1.3501 1	1 8.1775 1	1 215278202.4826 1	1 19444829.4469 1	1 654530433.2912 1	1 2.4943 1	1 0.2253 1	1 7.5837 1	1 1761544391.8927 1 1 20.4101 1	1 20.4101 1	1 13.6964 1	2 13435146.1342 2 2 0.1557 2	2 41876004.2677 2 2 0.4852 2	2 95086108.3490 2 2 1.1017 2	2 8438817.1228 2 2 0.0978 2	2 43732415.7436 2 2 0.5067 2	2 141173041.0300 2 2 1.6357 2	2 113401542.1472 2 2 1.3139 2	2 2 1104205.2449 2 2 2 2 0.0128 2 2	2 132552667.0653 2 2 1.5358 2	2 65172988.1354 2 2 0.7551 2	2 435231160.1882 2 2 5.0428 2	2 0.1557 2	2 0.4852 2	2 1.1017 2	2 0.0978 2	2 0.5067 2	2 1.6357 2	2 1.3139 2	2 2 0.0128 2 2	2 1.5358 2	2 0.7551 2	2 5.0428 2	2 183049045.2977 2	2 13435146.1342 2	2 415756328.0646 2	2 2.1209 2	2 0.1557 2	2 4.8172 2	2 1091204095.4283 2 2 12.6432 2	2 12.6432 2	2 8.4844 2	3 15098017.6745 3 3 0.1749 3	3 73672277.9256 3 3 0.8536 3	3 100747506.4925 3 3 1.1673 3	3 15412671.5977 3 3 0.1786 3	3 56531112.8803 3 3 0.6550 3	3 151452191.1779 3 3 1.7548 3	3 151274472.1810 3 3 1.7527 3	2 3 37395801.2294 2 3 2 3 0.4333 2 3	3 272221005.4333 3 3 3.1541 3	3 73188022.3553 3 3 0.8480 3	3 589358739.4750 3 3 6.8286 3	3 0.1749 3	3 0.8536 3	3 1.1673 3	3 0.1786 3	3 0.6550 3	3 1.7548 3	3 1.7527 3	2 3 0.4333 2 3	3 3.1541 3	3 0.8480 3	3 6.8286 3	3 225124469.1034 3	3 15098017.6745 3	3 650239479.2891 3	3 2.6084 3	3 0.1749 3	3 7.5340 3	3 1536351818.4224 3 3 17.8009 3	3 17.8009 3	3 11.9455 3	128576608	18516398	437505073	39042542	162479230	139580118	36927433	2 522546 2	112134799	115108649	1.4898	0.2145	5.0691	0.4524	1.8826	1.6172	0.4279	2 0.0061 2	1.2992	1.3337	4	4	16	5	12	4	4	2 4 2	4	8	1 51.9573 1	2 33.3284 2	3 36.4019 3	0	0 00400000	155952	0 10000000	16384	0 7 000	16384	0 00400140	0 7 8000	0	151	604	280	857775293	0.0000	
comb	104948763	35867358	19824514	16042844.0000	18516398	93	1128481.3226	124132628	42107479	25163233	16944246.0000	24663452	82762493	1.2681	0.7886	1.4999	5.6679	274078803	62432867	3.3116	1.4999	2.2080	0.7544	1027168705	46514866	12.4110	1.4999	8.2748	0.5620	301229015	5670276	3.6397	1.4999	2.4267	0.0685	1398476327 13.3253	13.3253																			1 133168097	1 133053596	1 114501	1 113989	1 0	1 0	1 0.0009	1 0.0009	1 0.0000	1 0.0000	1 36219074	1 35904074	1 315000	1 314488	1 77677	1 0	1 0.0087	1 0.0087	1 0.0021	1 0.0000	2 507178	2 491999	2 15179	2 11083	2 6680	2 0	2 0.0299	2 0.0219	2 0.0132	2 0.0000	133168097	133168062	35	0	0	0	0.0000	0.0000	0.0000	0.0000	37141478	37141366	112	0	0	0	0.0000	0.0000	0.0000	0.0000	34591865.6637 0.4180 1 18888926.9904 1 1 0.2282 1 2 12970715.3199 2 2 0.1567 2 3 14541009.1775 3 3 0.1757 3	374345217.2048 4.5231 1 73507319.4834 1 1 0.8882 1 2 41876004.2680 2 2 0.5060 2 3 72148289.1979 3 3 0.8718 3	182434970.3700 2.2043 1 126907415.0119 1 1 1.5334 1 2 92016206.7271 2 2 1.1118 2 3 97334707.6555 3 3 1.1761 3	79715177.1102 0.9632 1 12280954.9622 1 1 0.1484 1 2 8222851.0784 2 2 0.0994 2 3 14868823.8013 3 3 0.1797 3	295666697.2434 3.5725 1 160270191.6747 1 1 1.9365 1 2 42663864.8376 2 2 0.5155 2 3 54848573.3394 3 3 0.6627 3	233943979.4799 2.8267 1 136073142.4075 1 1 1.6441 1 2 136073142.4075 2 2 1.6441 2 3 145860226.1534 3 3 1.7624 3	508315557.1241 6.1419 1 153035387.7838 1 1 1.8491 1 2 111226221.6206 2 2 1.3439 2 3 147068739.0625 3 3 1.7770 3	2 349775058.9993 2 2 4.2263 2 2 1 1797253.3340 2 1 2 1 0.0217 2 1 2 2 1071730.7331 2 2 2 2 0.0129 2 2 2 3 35869885.8814 2 3 2 3 0.4334 2 3	1567618899.7984 1181934883.3970 18.9412 14.2810 1 234206172.2013 1 1 2.8299 1 2 129441384.7465 2 2 1.5640 2 3 262782656.8911 3 3 3.1751 3	1181934883.3970 14.2810	190150377.3363 2.2975 1 114052531.1557 1 1 1.3781 1 2 63564538.9036 2 2 0.7680 2 3 71007925.6174 3 3 0.8580 3	2163513645.1145 26.1412 1 690828645.3791 1 1 8.3471 1 2 425360827.7543 2 2 5.1395 2 3 571737035.8023 3 3 6.9082 3	0.4180 1 0.2282 1 2 0.1567 2 3 0.1757 3	4.5231 1 0.8882 1 2 0.5060 2 3 0.8718 3	2.2043 1 1.5334 1 2 1.1118 2 3 1.1761 3	0.9632 1 0.1484 1 2 0.0994 2 3 0.1797 3	3.5725 1 1.9365 1 2 0.5155 2 3 0.6627 3	2.8267 1 1.6441 1 2 1.6441 2 3 1.7624 3	6.1419 1 1.8491 1 2 1.3439 2 3 1.7770 3	2 4.2263 2 2 1 0.0217 2 1 2 2 0.0129 2 2 2 3 0.4334 2 3	18.9412 1 2.8299 1 2 1.5640 2 3 3.1751 3	14.2810	2.2975 1 1.3781 1 2 0.7680 2 3 0.8580 3	26.1412 1 8.3471 1 2 5.1395 2 3 6.9082 3	608289196.6847 1 209580461.8910 1 2 177949146.6755 2 3 218008515.3513 3	34591865.6637 1 18888926.9904 1 2 12970715.3199 2 3 14541009.1775 3	2878010040.7382 1 642279714.4488 1 2 405542933.8093 2 3 628932738.9092 3	7.3498 1 2.5323 1 2 2.1501 2 3 2.6341 3	0.4180 1 0.2282 1 2 0.1567 2 3 0.1757 3	34.7743 1 7.7605 1 2 4.9001 2 3 7.5992 3	5980071445.4444 72.2558 2 53.7485 48.1749 2 35.8356 1 1721847940.3840 1 1 20.8047 1 1 13.8710 1 2 1064487488.3967 2 2 12.8620 2 2 8.5754 2 3 1488067872.5797 3 3 17.9800 3 3 11.9877 3	72.2558 2 53.7485 1 20.8047 1 2 12.8620 2 3 17.9800 3	2 53.7485	48.1749 2 35.8356 1 13.8710 1 2 8.5754 2 3 11.9877 3	2 35.8356	1 18888926.9904 1 1 0.2282 1	1 73507319.4834 1 1 0.8882 1	1 126907415.0119 1 1 1.5334 1	1 12280954.9622 1 1 0.1484 1	1 160270191.6747 1 1 1.9365 1	1 136073142.4075 1 1 1.6441 1	1 153035387.7838 1 1 1.8491 1	2 1 1797253.3340 2 1 2 1 0.0217 2 1	1 234206172.2013 1 1 2.8299 1	1 114052531.1557 1 1 1.3781 1	1 690828645.3791 1 1 8.3471 1	1 0.2282 1	1 0.8882 1	1 1.5334 1	1 0.1484 1	1 1.9365 1	1 1.6441 1	1 1.8491 1	2 1 0.0217 2 1	1 2.8299 1	1 1.3781 1	1 8.3471 1	1 209580461.8910 1	1 18888926.9904 1	1 642279714.4488 1	1 2.5323 1	1 0.2282 1	1 7.7605 1	1 1721847940.3840 1 1 20.8047 1	1 20.8047 1	1 13.8710 1	2 12970715.3199 2 2 0.1567 2	2 41876004.2680 2 2 0.5060 2	2 92016206.7271 2 2 1.1118 2	2 8222851.0784 2 2 0.0994 2	2 42663864.8376 2 2 0.5155 2	2 136073142.4075 2 2 1.6441 2	2 111226221.6206 2 2 1.3439 2	2 2 1071730.7331 2 2 2 2 0.0129 2 2	2 129441384.7465 2 2 1.5640 2	2 63564538.9036 2 2 0.7680 2	2 425360827.7543 2 2 5.1395 2	2 0.1567 2	2 0.5060 2	2 1.1118 2	2 0.0994 2	2 0.5155 2	2 1.6441 2	2 1.3439 2	2 2 0.0129 2 2	2 1.5640 2	2 0.7680 2	2 5.1395 2	2 177949146.6755 2	2 12970715.3199 2	2 405542933.8093 2	2 2.1501 2	2 0.1567 2	2 4.9001 2	2 1064487488.3967 2 2 12.8620 2	2 12.8620 2	2 8.5754 2	3 14541009.1775 3 3 0.1757 3	3 72148289.1979 3 3 0.8718 3	3 97334707.6555 3 3 1.1761 3	3 14868823.8013 3 3 0.1797 3	3 54848573.3394 3 3 0.6627 3	3 145860226.1534 3 3 1.7624 3	3 147068739.0625 3 3 1.7770 3	2 3 35869885.8814 2 3 2 3 0.4334 2 3	3 262782656.8911 3 3 3.1751 3	3 71007925.6174 3 3 0.8580 3	3 571737035.8023 3 3 6.9082 3	3 0.1757 3	3 0.8718 3	3 1.1761 3	3 0.1797 3	3 0.6627 3	3 1.7624 3	3 1.7770 3	2 3 0.4334 2 3	3 3.1751 3	3 0.8580 3	3 6.9082 3	3 218008515.3513 3	3 14541009.1775 3	3 628932738.9092 3	3 2.6341 3	3 0.1757 3	3 7.5992 3	3 1488067872.5797 3 3 17.9800 3	3 17.9800 3	3 11.9877 3	124131927	18516398	423207686	38239797	158665059	133169021	36219074	2 507178 2	109481616	112353046	1.4999	0.2237	5.1135	0.4620	1.9171	1.6091	0.4376	2 0.0061 2	1.3228	1.3575	4	4	16	5	12	4	4	2 4 2	4	8	1 52.2879 1	2 32.6348 2	3 35.8280 3	0	0 00400000	155952	0 10000000	16384	0 7 000	16384	0 00400140	0 7 8000	0	151	604	253	830465776	0.0000	
