bpred	sim_num_insn	sim_num_refs	sim_num_loads	sim_num_stores	sim_num_branches	sim_elapsed_time	sim_inst_rate	sim_total_insn	sim_total_refs	sim_total_loads	sim_total_stores	sim_total_branches	sim_cycle	sim_IPC	sim_CPI	sim_exec_BW	sim_IPB	IFQ_count	IFQ_fcount	ifq_occupancy	ifq_rate	ifq_latency	ifq_full	RUU_count	RUU_fcount	ruu_occupancy	ruu_rate	ruu_latency	ruu_full	LSQ_count	LSQ_fcount	lsq_occupancy	lsq_rate	lsq_latency	lsq_full	sim_slip	avg_sim_slip	bpred_nottaken.lookups	bpred_nottaken.updates	bpred_nottaken.addr_hits	bpred_nottaken.dir_hits	bpred_nottaken.misses	bpred_nottaken.jr_hits	bpred_nottaken.jr_seen	bpred_nottaken.jr_non_ras_hits.PP	bpred_nottaken.jr_non_ras_seen.PP	bpred_nottaken.bpred_addr_rate	bpred_nottaken.bpred_dir_rate	bpred_nottaken.bpred_jr_rate	bpred_nottaken.bpred_jr_non_ras_rate.PP	bpred_nottaken.retstack_pushes	bpred_nottaken.retstack_pops	bpred_nottaken.used_ras.PP	bpred_nottaken.ras_hits.PP	bpred_nottaken.ras_rate.PP	il1.accesses	il1.hits	il1.misses	il1.replacements	il1.writebacks	il1.invalidations	il1.miss_rate	il1.repl_rate	il1.wb_rate	il1.inv_rate	dl1.accesses	dl1.hits	dl1.misses	dl1.replacements	dl1.writebacks	dl1.invalidations	dl1.miss_rate	dl1.repl_rate	dl1.wb_rate	dl1.inv_rate	ul2.accesses	ul2.hits	ul2.misses	ul2.replacements	ul2.writebacks	ul2.invalidations	ul2.miss_rate	ul2.repl_rate	ul2.wb_rate	ul2.inv_rate	itlb.accesses	itlb.hits	itlb.misses	itlb.replacements	itlb.writebacks	itlb.invalidations	itlb.miss_rate	itlb.repl_rate	itlb.wb_rate	itlb.inv_rate	dtlb.accesses	dtlb.hits	dtlb.misses	dtlb.replacements	dtlb.writebacks	dtlb.invalidations	dtlb.miss_rate	dtlb.repl_rate	dtlb.wb_rate	dtlb.inv_rate	rename_power	bpred_power	window_power	lsq_power	regfile_power	icache_power	dcache_power	dcache2_power	alu_power	falu_power	resultbus_power	clock_power	avg_rename_power	avg_bpred_power	avg_window_power	avg_lsq_power	avg_regfile_power	avg_icache_power	avg_dcache_power	avg_dcache2_power	avg_alu_power	avg_falu_power	avg_resultbus_power	avg_clock_power	fetch_stage_power	dispatch_stage_power	issue_stage_power	avg_fetch_power	avg_dispatch_power	avg_issue_power	total_power	avg_total_power_cycle	avg_total_power_cycle_nofp_nod2	avg_total_power_insn	avg_total_power_insn_nofp_nod2	rename_power_cc1	bpred_power_cc1	window_power_cc1	lsq_power_cc1	regfile_power_cc1	icache_power_cc1	dcache_power_cc1	dcache2_power_cc1	alu_power_cc1	resultbus_power_cc1	clock_power_cc1	avg_rename_power_cc1	avg_bpred_power_cc1	avg_window_power_cc1	avg_lsq_power_cc1	avg_regfile_power_cc1	avg_icache_power_cc1	avg_dcache_power_cc1	avg_dcache2_power_cc1	avg_alu_power_cc1	avg_resultbus_power_cc1	avg_clock_power_cc1	fetch_stage_power_cc1	dispatch_stage_power_cc1	issue_stage_power_cc1	avg_fetch_power_cc1	avg_dispatch_power_cc1	avg_issue_power_cc1	total_power_cycle_cc1	avg_total_power_cycle_cc1	avg_total_power_insn_cc1	rename_power_cc2	bpred_power_cc2	window_power_cc2	lsq_power_cc2	regfile_power_cc2	icache_power_cc2	dcache_power_cc2	dcache2_power_cc2	alu_power_cc2	resultbus_power_cc2	clock_power_cc2	avg_rename_power_cc2	avg_bpred_power_cc2	avg_window_power_cc2	avg_lsq_power_cc2	avg_regfile_power_cc2	avg_icache_power_cc2	avg_dcache_power_cc2	avg_dcache2_power_cc2	avg_alu_power_cc2	avg_resultbus_power_cc2	avg_clock_power_cc2	fetch_stage_power_cc2	dispatch_stage_power_cc2	issue_stage_power_cc2	avg_fetch_power_cc2	avg_dispatch_power_cc2	avg_issue_power_cc2	total_power_cycle_cc2	avg_total_power_cycle_cc2	avg_total_power_insn_cc2	rename_power_cc3	bpred_power_cc3	window_power_cc3	lsq_power_cc3	regfile_power_cc3	icache_power_cc3	dcache_power_cc3	dcache2_power_cc3	alu_power_cc3	resultbus_power_cc3	clock_power_cc3	avg_rename_power_cc3	avg_bpred_power_cc3	avg_window_power_cc3	avg_lsq_power_cc3	avg_regfile_power_cc3	avg_icache_power_cc3	avg_dcache_power_cc3	avg_dcache2_power_cc3	avg_alu_power_cc3	avg_resultbus_power_cc3	avg_clock_power_cc3	fetch_stage_power_cc3	dispatch_stage_power_cc3	issue_stage_power_cc3	avg_fetch_power_cc3	avg_dispatch_power_cc3	avg_issue_power_cc3	total_power_cycle_cc3	avg_total_power_cycle_cc3	avg_total_power_insn_cc3	total_rename_access	total_bpred_access	total_window_access	total_lsq_access	total_regfile_access	total_icache_access	total_dcache_access	total_dcache2_access	total_alu_access	total_resultbus_access	avg_rename_access	avg_bpred_access	avg_window_access	avg_lsq_access	avg_regfile_access	avg_icache_access	avg_dcache_access	avg_dcache2_access	avg_alu_access	avg_resultbus_access	max_rename_access	max_bpred_access	max_window_access	max_lsq_access	max_regfile_access	max_icache_access	max_dcache_access	max_dcache2_access	max_alu_access	max_resultbus_access	max_cycle_power_cc1	max_cycle_power_cc2	max_cycle_power_cc3	sim_invalid_addrs	ld_text_base	ld_text_size	ld_data_base	ld_data_size	ld_stack_base	ld_stack_size	ld_prog_entry	ld_environ_base	ld_target_big_endian	mem.page_count	mem.page_mem	mem.ptab_misses	mem.ptab_accesses	mem.ptab_miss_rate
nottaken	75087417	 25674332	 14129696	 11544636.0000	 13028733	 87	 863073.7586	 127252971	 41855535	 23917307	 17938228.0000	 24798980	 89137109	 0.8424	 1.1871	 1.4276	 5.7632	 228459104	 50114067	 2.5630	 1.4276	 1.7953	 0.5622	 733970832	 18771042	 8.2342	 1.4276	 5.7678	 0.2106	 211960375	 4505553	 2.3779	 1.4276	 1.6657	 0.0505	 883737852 11.7695	 11.7695	 29186157	 13028733	 4583154	 4583154	 8445579	 457	 1119081	 457	 1119081	 0.3518	 0.3518	 0.0004	 0.0004	 0	 0	 0	 0		 158275979	 158134306	 141673	 141161	 0	 0	 0.0009	 0.0009	 0.0000	 0.0000	 26833761	 26636847	 196914	 196402	 56322	 0	 0.0073	 0.0073	 0.0021	 0.0000	 394909	 385551	 9358	 5262	 3461	 0	 0.0237	 0.0133	 0.0088	 0.0000	 158275979	 158275944	 35	 0	 0	 0	 0.0000	 0.0000	 0.0000	 0.0000	 27531139	 27531041	 98	 0	 0	 0	 0.0000	 0.0000	 0.0000	 0.0000	 37256235.1423 0.4180 17681818.8409 0.1984 13199669.7081 0.1481 15157111.3262 0.1700	 403178411.2731 4.5231 56437750.6026 0.6332 29465303.0651 0.3306 64146929.3019 0.7196	 196486660.1977 2.2043 132150795.7179 1.4826 83400785.7571 0.9356 89574855.2643 1.0049	 85855079.6894 0.9632 9020505.3184 0.1012 6224168.6651 0.0698 13857060.0865 0.1555	 318439835.0229 3.5725 172492168.9946 1.9351 38439546.3747 0.4312 51559829.9498 0.5784	 251963048.0262 2.8267 143813325.7265 1.6134 143813325.7265 1.6134 154628298.0300 1.7347	 547467549.3631 6.1419 114990668.2981 1.2900 82404587.3639 0.9245 125994483.7413 1.4135	 376715785.5231 4.2263 1413883.7777 0.0159 834492.2534 0.0094 38364863.6492 0.4304	 1688361619.9497 1272971061.0958 18.9412 14.2810 202755034.9846 2.2746 109567957.0272 1.2292 258128614.8506 2.8959	 1272971061.0958 14.2810	 204796331.0663 2.2975 98869509.6303 1.1092 53758405.0884 0.6031 64282252.5509 0.7212	 2330153970.0877 26.1412 627598118.4433 7.0408 365506156.4159 4.1005 534776584.3287 5.9995	 0.4180 0.1984 0.1481 0.1700	 4.5231 0.6332 0.3306 0.7196	 2.2043 1.4826 0.9356 1.0049	 0.9632 0.1012 0.0698 0.1555	 3.5725 1.9351 0.4312 0.5784	 2.8267 1.6134 1.6134 1.7347	 6.1419 1.2900 0.9245 1.4135	 4.2263 0.0159 0.0094 0.4304	 18.9412 2.2746 1.2292 2.8959	 14.2810	 2.2975 1.1092 0.6031 0.7212	 26.1412 7.0408 4.1005 5.9995	 655141459.2994 200251076.3291 173278628.7916 218775227.3319	 37256235.1423 17681818.8409 13199669.7081 15157111.3262	 3099683025.7894 559200397.7272 336190396.1552 590202130.1429	 7.3498 2.2466 1.9440 2.4544	 0.4180 0.1984 0.1481 0.1700	 34.7743 6.2735 3.7716 6.6213	 6440674525.3417 72.2558 53.7485 50.6132 37.6493 1577223580.3351 17.6944 12.3944 926614397.4455 10.3954 7.2817 1410470883.0794 15.8236 11.0840	 72.2558 53.7485 17.6944 10.3954 15.8236	 53.7485	 50.6132 37.6493 12.3944 7.2817 11.0840	 37.6493	 17681818.8409 0.1984	 56437750.6026 0.6332	 132150795.7179 1.4826	 9020505.3184 0.1012	 172492168.9946 1.9351	 143813325.7265 1.6134	 114990668.2981 1.2900	 1413883.7777 0.0159	 202755034.9846 2.2746	 98869509.6303 1.1092	 627598118.4433 7.0408	 0.1984	 0.6332	 1.4826	 0.1012	 1.9351	 1.6134	 1.2900	 0.0159	 2.2746	 1.1092	 7.0408	 200251076.3291	 17681818.8409	 559200397.7272	 2.2466	 0.1984	 6.2735	 1577223580.3351 17.6944	 17.6944	 12.3944	 13199669.7081 0.1481	 29465303.0651 0.3306	 83400785.7571 0.9356	 6224168.6651 0.0698	 38439546.3747 0.4312	 143813325.7265 1.6134	 82404587.3639 0.9245	 834492.2534 0.0094	 109567957.0272 1.2292	 53758405.0884 0.6031	 365506156.4159 4.1005	 0.1481	 0.3306	 0.9356	 0.0698	 0.4312	 1.6134	 0.9245	 0.0094	 1.2292	 0.6031	 4.1005	 173278628.7916	 13199669.7081	 336190396.1552	 1.9440	 0.1481	 3.7716	 926614397.4455 10.3954	 10.3954	 7.2817	 15157111.3262 0.1700	 64146929.3019 0.7196	 89574855.2643 1.0049	 13857060.0865 0.1555	 51559829.9498 0.5784	 154628298.0300 1.7347	 125994483.7413 1.4135	 38364863.6492 0.4304	 258128614.8506 2.8959	 64282252.5509 0.7212	 534776584.3287 5.9995	 0.1700	 0.7196	 1.0049	 0.1555	 0.5784	 1.7347	 1.4135	 0.4304	 2.8959	 0.7212	 5.9995	 218775227.3319	 15157111.3262	 590202130.1429	 2.4544	 0.1700	 6.6213	 1410470883.0794 15.8236	 15.8236	 11.0840	 126323059	 13028733	 392789179	 28843423	 143706922	 158275979	 26833761	 394909	 92727252	 94272237	 1.4172	 0.1462	 4.4066	 0.3236	 1.6122	 1.7756	 0.3010	 0.0044	 1.0403	 1.0576	 4	 3	 16	 5	 12	 4	 4	 4	 4	 8	 50.3069	 31.6002	 34.8252	 0	 0	 155952	 0	 16384	 0	 16384	 0	 0	 0	 137	 548	 19410	 857102943	 0.0000	
taken	75087417	 25674332	 14129696	 11544636.0000	 13028733	 92	 816167.5761	 138427067	 46144130	 27139519	 19004611.0000	 27235798	 87803538	 0.8552	 1.1694	 1.5766	 5.7632	 246912208	 61687636	 2.8121	 1.5766	 1.7837	 0.7026	 758209969	 21959378	 8.6353	 1.5766	 5.4773	 0.2501	 222555503	 4889984	 2.5347	 1.5766	 1.6077	 0.0557	 883148340 11.7616	 11.7616																			 172130772	 171964600	 166172	 165660	 0	 0	 0.0010	 0.0010	 0.0000	 0.0000	 27178195	 26968969	 209226	 208714	 56767	 0	 0.0077	 0.0077	 0.0021	 0.0000	 432165	 422806	 9359	 5263	 3460	 0	 0.0217	 0.0122	 0.0080	 0.0000	 172130772	 172130737	 35	 0	 0	 0	 0.0000	 0.0000	 0.0000	 0.0000	 27842673	 27842575	 98	 0	 0	 0	 0.0000	 0.0000	 0.0000	 0.0000	 36698848.4903 0.4180 16774077.2174 0.1910 14367266.3263 0.1636 16359743.4410 0.1863	 397146501.0456 4.5231 55545473.4590 0.6326 29465303.0653 0.3356 63633284.4242 0.7247	 193547043.7478 2.2043 130538794.9764 1.4867 87399745.4734 0.9954 93606105.1964 1.0661	 84570610.7861 0.9632 8989694.7856 0.1024 6380900.8278 0.0727 13871985.5110 0.1580	 313675689.8380 3.5725 167510910.2027 1.9078 39744301.4896 0.4527 52849295.9571 0.6019	 248193455.1189 2.8267 137435477.3564 1.5653 137435477.3564 1.5653 148511275.1867 1.6914	 539276944.4008 6.1419 111160798.5345 1.2660 83462319.8837 0.9506 126627601.9139 1.4422	 371079779.9015 4.2263 1566609.9187 0.0178 913218.8547 0.0104 37864811.1104 0.4312	 1663102217.6493 1253926273.6875 18.9412 14.2810 193712602.8112 2.2062 112284610.7522 1.2788 259223571.5522 2.9523	 1253926273.6875 14.2810	 201732394.4838 2.2975 97207891.9750 1.1071 55095452.9811 0.6275 65484420.8911 0.7458	 2295292779.2623 26.1412 608131901.9074 6.9261 368950697.6529 4.2020 536781971.1943 6.1134	 0.4180 0.1910 0.1636 0.1863	 4.5231 0.6326 0.3356 0.7247	 2.2043 1.4867 0.9954 1.0661	 0.9632 0.1024 0.0727 0.1580	 3.5725 1.9078 0.4527 0.6019	 2.8267 1.5653 1.5653 1.6914	 6.1419 1.2660 0.9506 1.4422	 4.2263 0.0178 0.0104 0.4312	 18.9412 2.2062 1.2788 2.9523	 14.2810	 2.2975 1.1071 0.6275 0.7458	 26.1412 6.9261 4.2020 6.1134	 645339956.1645 192980950.8153 166900780.4217 212144559.6109	 36698848.4903 16774077.2174 14367266.3263 16359743.4410	 3053308990.9695 543176393.0013 345536248.7729 596678496.1749	 7.3498 2.1979 1.9008 2.4161	 0.4180 0.1910 0.1636 0.1863	 34.7743 6.1863 3.9353 6.7956	 6344316264.7246 72.2558 53.7485 45.8315 34.0924 1528574233.1441 17.4090 11.0425 935499294.6635 10.6545 6.7581 1414814066.3782 16.1134 10.2206	 72.2558 53.7485 17.4090 10.6545 16.1134	 53.7485	 45.8315 34.0924 11.0425 6.7581 10.2206	 34.0924	 16774077.2174 0.1910	 55545473.4590 0.6326	 130538794.9764 1.4867	 8989694.7856 0.1024	 167510910.2027 1.9078	 137435477.3564 1.5653	 111160798.5345 1.2660	 1566609.9187 0.0178	 193712602.8112 2.2062	 97207891.9750 1.1071	 608131901.9074 6.9261	 0.1910	 0.6326	 1.4867	 0.1024	 1.9078	 1.5653	 1.2660	 0.0178	 2.2062	 1.1071	 6.9261	 192980950.8153	 16774077.2174	 543176393.0013	 2.1979	 0.1910	 6.1863	 1528574233.1441 17.4090	 17.4090	 11.0425	 14367266.3263 0.1636	 29465303.0653 0.3356	 87399745.4734 0.9954	 6380900.8278 0.0727	 39744301.4896 0.4527	 137435477.3564 1.5653	 83462319.8837 0.9506	 913218.8547 0.0104	 112284610.7522 1.2788	 55095452.9811 0.6275	 368950697.6529 4.2020	 0.1636	 0.3356	 0.9954	 0.0727	 0.4527	 1.5653	 0.9506	 0.0104	 1.2788	 0.6275	 4.2020	 166900780.4217	 14367266.3263	 345536248.7729	 1.9008	 0.1636	 3.9353	 935499294.6635 10.6545	 10.6545	 6.7581	 16359743.4410 0.1863	 63633284.4242 0.7247	 93606105.1964 1.0661	 13871985.5110 0.1580	 52849295.9571 0.6019	 148511275.1867 1.6914	 126627601.9139 1.4422	 37864811.1104 0.4312	 259223571.5522 2.9523	 65484420.8911 0.7458	 536781971.1943 6.1134	 0.1863	 0.7247	 1.0661	 0.1580	 0.6019	 1.6914	 1.4422	 0.4312	 2.9523	 0.7458	 6.1134	 212144559.6109	 16359743.4410	 596678496.1749	 2.4161	 0.1863	 6.7956	 1414814066.3782 16.1134	 16.1134	 10.2206	 137497155	 13028733	 414009930	 29568850	 148729370	 172130772	 27178195	 432165	 95089084	 96563190	 1.5660	 0.1484	 4.7152	 0.3368	 1.6939	 1.9604	 0.3095	 0.0049	 1.0830	 1.0998	 4	 4	 17	 5	 12	 4	 4	 4	 4	 8	 50.2377	 31.3846	 34.6189	 0	 0	 155952	 0	 16384	 0	 16384	 0	 0	 0	 137	 548	 19432	 915858773	 0.0000	
perfect	75087417	 25674332	 14129696	 11544636.0000	 13028733	 56	 1340846.7321	 75087416	 25674332	 14129696	 11544636.0000	 13028733	 48073855	 1.5619	 0.6402	 1.5619	 5.7632	 189723453	 47409419	 3.9465	 1.5619	 2.5267	 0.9862	 708733834	 32577873	 14.7426	 1.5619	 9.4388	 0.6777	 207600305	 4038435	 4.3184	 1.5619	 2.7648	 0.0840	 1017095875 13.5455	 13.5455																			 89489978	 89385643	 104335	 103823	 0	 0	 0.0012	 0.0012	 0.0000	 0.0000	 25015551	 24842345	 173206	 172694	 55705	 0	 0.0069	 0.0069	 0.0022	 0.0000	 333246	 324135	 9111	 5015	 3347	 0	 0.0273	 0.0150	 0.0100	 0.0000	 89489978	 89489943	 35	 0	 0	 0	 0.0000	 0.0000	 0.0000	 0.0000	 25674332	 25674234	 98	 0	 0	 0	 0.0000	 0.0000	 0.0000	 0.0000	 20093212.2009 0.4180 11826920.2691 0.2460 7845985.8391 0.1632 8672615.0290 0.1804	 217444122.4126 4.5231 0.0000 0.0000 0.0000 0.0000 21744412.2554 0.4523	 105970132.0608 2.2043 77850599.6329 1.6194 59637553.0230 1.2405 62349158.5549 1.2969	 46303775.0857 0.9632 8261891.8057 0.1719 5601206.1124 0.1165 9337446.8486 0.1942	 171742505.9579 3.5725 94628864.2073 1.9684 28626525.6681 0.5955 35454189.3491 0.7375	 135889924.7885 2.8267 80181437.0381 1.6679 80181437.0381 1.6679 85752285.8108 1.7838	 295262835.8684 6.1419 103029235.2624 2.1431 76820992.6963 1.5980 96362195.8367 2.0045	 203172171.8859 4.2263 1162950.1320 0.0242 704190.5995 0.0146 20905391.6839 0.4349	 910575320.9437 686544884.5170 18.9412 14.2810 153858964.1865 3.2005 86870468.5010 1.8070 162542103.9360 3.3811	 686544884.5170 14.2810	 110451743.5481 2.2975 74730317.6183 1.5545 42960789.4888 0.8936 46399148.1253 0.9652	 1256709861.2947 26.1412 404407586.4945 8.4122 255685734.0611 5.3186 340359512.0617 7.0799	 0.4180 0.2460 0.1632 0.1804	 4.5231 0.0000 0.0000 0.4523	 2.2043 1.6194 1.2405 1.2969	 0.9632 0.1719 0.1165 0.1942	 3.5725 1.9684 0.5955 0.7375	 2.8267 1.6679 1.6679 1.7838	 6.1419 2.1431 1.5980 2.0045	 4.2263 0.0242 0.0146 0.4349	 18.9412 3.2005 1.8070 3.3811	 14.2810	 2.2975 1.5545 0.8936 0.9652	 26.1412 8.4122 5.3186 7.0799	 353334047.2011 80181437.0381 80181437.0381 107496698.0662	 20093212.2009 11826920.2691 7845985.8391 8672615.0290	 1671735979.3926 418893958.6378 272595200.4210 397895444.9855	 7.3498 1.6679 1.6679 2.2361	 0.4180 0.2460 0.1632 0.1804	 34.7743 8.7136 5.6703 8.2768	 3473615606.0472 72.2558 53.7485 46.2610 34.4119 1009938766.6468 21.0081 13.4502 644934883.0274 13.4155 8.5891 889878459.4915 18.5107 11.8512	 72.2558 53.7485 21.0081 13.4155 18.5107	 53.7485	 46.2610 34.4119 13.4502 8.5891 11.8512	 34.4119	 11826920.2691 0.2460	 0.0000 0.0000	 77850599.6329 1.6194	 8261891.8057 0.1719	 94628864.2073 1.9684	 80181437.0381 1.6679	 103029235.2624 2.1431	 1162950.1320 0.0242	 153858964.1865 3.2005	 74730317.6183 1.5545	 404407586.4945 8.4122	 0.2460	 0.0000	 1.6194	 0.1719	 1.9684	 1.6679	 2.1431	 0.0242	 3.2005	 1.5545	 8.4122	 80181437.0381	 11826920.2691	 418893958.6378	 1.6679	 0.2460	 8.7136	 1009938766.6468 21.0081	 21.0081	 13.4502	 7845985.8391 0.1632	 0.0000 0.0000	 59637553.0230 1.2405	 5601206.1124 0.1165	 28626525.6681 0.5955	 80181437.0381 1.6679	 76820992.6963 1.5980	 704190.5995 0.0146	 86870468.5010 1.8070	 42960789.4888 0.8936	 255685734.0611 5.3186	 0.1632	 0.0000	 1.2405	 0.1165	 0.5955	 1.6679	 1.5980	 0.0146	 1.8070	 0.8936	 5.3186	 80181437.0381	 7845985.8391	 272595200.4210	 1.6679	 0.1632	 5.6703	 644934883.0274 13.4155	 13.4155	 8.5891	 8672615.0290 0.1804	 21744412.2554 0.4523	 62349158.5549 1.2969	 9337446.8486 0.1942	 35454189.3491 0.7375	 85752285.8108 1.7838	 96362195.8367 2.0045	 20905391.6839 0.4349	 162542103.9360 3.3811	 46399148.1253 0.9652	 340359512.0617 7.0799	 0.1804	 0.4523	 1.2969	 0.1942	 0.7375	 1.7838	 2.0045	 0.4349	 3.3811	 0.9652	 7.0799	 107496698.0662	 8672615.0290	 397895444.9855	 2.2361	 0.1804	 8.2768	 889878459.4915 18.5107	 18.5107	 11.8512	 75087404	 0	 272299408	 26333113	 106560545	 89489978	 25015551	 333246	 73426107	 76188367	 1.5619	 0.0000	 5.6642	 0.5478	 2.2166	 1.8615	 0.5204	 0.0069	 1.5274	 1.5848	 4	 0	 16	 5	 12	 4	 4	 4	 4	 8	 47.8663	 31.2107	 34.7137	 0	 0	 155952	 0	 16384	 0	 16384	 0	 0	 0	 137	 548	 137	 565696234	 0.0000	
bimod	75087417	 25674332	 14129696	 11544636.0000	 13028733	 71	 1057569.2535	 96755109	 33827334	 18541139	 15286195.0000	 18532273	 64728258	 1.1600	 0.8620	 1.4948	 5.7632	 203958713	 46550121	 3.1510	 1.4948	 2.1080	 0.7192	 735171925	 31583601	 11.3578	 1.4948	 7.5983	 0.4879	 216536195	 4978683	 3.3453	 1.4948	 2.2380	 0.0769	 979689929 13.0473	 13.0473																			 107851527	 107761018	 90509	 89997	 0	 0	 0.0008	 0.0008	 0.0000	 0.0000	 26200676	 26010847	 189829	 189317	 56076	 0	 0.0072	 0.0072	 0.0021	 0.0000	 336414	 327318	 9096	 5000	 3350	 0	 0.0270	 0.0149	 0.0100	 0.0000	 107851527	 107851492	 35	 0	 0	 0	 0.0000	 0.0000	 0.0000	 0.0000	 26868000	 26867902	 98	 0	 0	 0	 0.0000	 0.0000	 0.0000	 0.0000	 27054177.8556 0.4180 14482308.5054 0.2237 10110002.8968 0.1562 11367189.8252 0.1756	 292774092.3512 4.5231 52694171.4746 0.8141 29465303.0659 0.4552 53580682.1250 0.8278	 142681755.9801 2.2043 98309883.9967 1.5188 69049796.8035 1.0668 73309600.4649 1.1326	 62344962.8115 0.9632 8908253.3272 0.1376 5959887.3672 0.0921 11233000.6669 0.1735	 231239895.9424 3.5725 123017424.1560 1.9005 32239571.2088 0.4981 41914831.3298 0.6476	 182966772.9085 2.8267 107122375.6951 1.6550 107122375.6951 1.6550 114706815.4142 1.7721	 397551829.7470 6.1419 110969685.3820 1.7144 80460427.9832 1.2430 109350039.8025 1.6894	 273557857.3357 4.2263 1171613.9463 0.0181 710884.9809 0.0110 27949816.0974 0.4318	 1226029290.3618 924387162.5424 18.9412 14.2810 173788043.8875 2.6849 95410987.5045 1.4740 200635111.7374 3.0997	 924387162.5424 14.2810	 148715948.7578 2.2975 84940665.6977 1.3123 47178924.7250 0.7289 53446458.6199 0.8257	 1692076497.9917 26.1412 516214667.3282 7.9751 316179663.5589 4.8847 433048944.2160 6.6903	 0.4180 0.2237 0.1562 0.1756	 4.5231 0.8141 0.4552 0.8278	 2.2043 1.5188 1.0668 1.1326	 0.9632 0.1376 0.0921 0.1735	 3.5725 1.9005 0.4981 0.6476	 2.8267 1.6550 1.6550 1.7721	 6.1419 1.7144 1.2430 1.6894	 4.2263 0.0181 0.0110 0.4318	 18.9412 2.6849 1.4740 3.0997	 14.2810	 2.2975 1.3123 0.7289 0.8257	 26.1412 7.9751 4.8847 6.6903	 475740865.2597 159816547.1697 136587678.7610 168287497.5392	 27054177.8556 14482308.5054 10110002.8968 11367189.8252	 2250881644.9940 478088146.2374 298770909.3642 475924027.3890	 7.3498 2.4690 2.1102 2.5999	 0.4180 0.2237 0.1562 0.1756	 34.7743 7.3861 4.6158 7.3526	 4676993082.0434 72.2558 53.7485 48.3385 35.9573 1291619093.3967 19.9545 13.3494 793887825.7897 12.2649 8.2051 1130542490.2992 17.4660 11.6846	 72.2558 53.7485 19.9545 12.2649 17.4660	 53.7485	 48.3385 35.9573 13.3494 8.2051 11.6846	 35.9573	 14482308.5054 0.2237	 52694171.4746 0.8141	 98309883.9967 1.5188	 8908253.3272 0.1376	 123017424.1560 1.9005	 107122375.6951 1.6550	 110969685.3820 1.7144	 1171613.9463 0.0181	 173788043.8875 2.6849	 84940665.6977 1.3123	 516214667.3282 7.9751	 0.2237	 0.8141	 1.5188	 0.1376	 1.9005	 1.6550	 1.7144	 0.0181	 2.6849	 1.3123	 7.9751	 159816547.1697	 14482308.5054	 478088146.2374	 2.4690	 0.2237	 7.3861	 1291619093.3967 19.9545	 19.9545	 13.3494	 10110002.8968 0.1562	 29465303.0659 0.4552	 69049796.8035 1.0668	 5959887.3672 0.0921	 32239571.2088 0.4981	 107122375.6951 1.6550	 80460427.9832 1.2430	 710884.9809 0.0110	 95410987.5045 1.4740	 47178924.7250 0.7289	 316179663.5589 4.8847	 0.1562	 0.4552	 1.0668	 0.0921	 0.4981	 1.6550	 1.2430	 0.0110	 1.4740	 0.7289	 4.8847	 136587678.7610	 10110002.8968	 298770909.3642	 2.1102	 0.1562	 4.6158	 793887825.7897 12.2649	 12.2649	 8.2051	 11367189.8252 0.1756	 53580682.1250 0.8278	 73309600.4649 1.1326	 11233000.6669 0.1735	 41914831.3298 0.6476	 114706815.4142 1.7721	 109350039.8025 1.6894	 27949816.0974 0.4318	 200635111.7374 3.0997	 53446458.6199 0.8257	 433048944.2160 6.6903	 0.1756	 0.8278	 1.1326	 0.1735	 0.6476	 1.7721	 1.6894	 0.4318	 3.0997	 0.8257	 6.6903	 168287497.5392	 11367189.8252	 475924027.3890	 2.5999	 0.1756	 7.3526	 1130542490.2992 17.4660	 17.4660	 11.6846	 96754428	 13028733	 319421552	 27663982	 120728173	 107852325	 26200676	 336414	 80731975	 83258661	 1.4948	 0.2013	 4.9348	 0.4274	 1.8652	 1.6662	 0.4048	 0.0052	 1.2472	 1.2863	 4	 4	 16	 5	 12	 4	 4	 4	 4	 8	 51.4974	 32.9750	 36.0858	 0	 0	 155952	 0	 16384	 0	 16384	 0	 0	 0	 137	 548	 205	 646259178	 0.0000	
2lev	75087417	 25674332	 14129696	 11544636.0000	 13028733	 69	 1088223.4348	 91765382	 30740038	 18404905	 12335133.0000	 18013622	 61460195	 1.2217	 0.8185	 1.4931	 5.7632	 199927337	 45550201	 3.2530	 1.4931	 2.1787	 0.7411	 739372008	 32740807	 12.0301	 1.4931	 8.0572	 0.5327	 215767867	 4168760	 3.5107	 1.4931	 2.3513	 0.0678	 992066143 13.2121	 13.2121																			 99535337	 99438188	 97149	 96637	 0	 0	 0.0010	 0.0010	 0.0000	 0.0000	 26401169	 26208308	 192861	 192349	 56282	 0	 0.0073	 0.0073	 0.0021	 0.0000	 346292	 337131	 9161	 5065	 3371	 0	 0.0265	 0.0146	 0.0097	 0.0000	 99535337	 99535302	 35	 0	 0	 0	 0.0000	 0.0000	 0.0000	 0.0000	 27069015	 27068917	 98	 0	 0	 0	 0.0000	 0.0000	 0.0000	 0.0000	 25688240.3134 0.4180 13845072.8909 0.2253 9585590.7959 0.1560 10769907.5322 0.1752	 277992230.2427 4.5231 52498686.4749 0.8542 29465303.0660 0.4794 52115362.4051 0.8480	 135477901.2517 2.2043 93688887.9023 1.5244 67982731.0103 1.1061 72005241.5254 1.1716	 59197229.9217 0.9632 8853261.3639 0.1440 6033409.3306 0.0982 10993628.3230 0.1789	 219564832.0686 3.5725 118917677.4964 1.9349 31399962.2612 0.5109 40475611.1611 0.6586	 173728969.2179 2.8267 100411226.5567 1.6338 100411226.5567 1.6338 107743000.8204 1.7531	 377479847.8091 6.1419 110393539.0919 1.7962 81076127.8449 1.3192 108006184.4759 1.7573	 259746203.1834 4.2263 1207245.4674 0.0196 731758.4340 0.0119 26586436.4412 0.4326	 1164128335.6618 877715807.9072 18.9412 14.2810 170236896.7136 2.7699 94760975.4487 1.5418 194150118.9602 3.1590	 877715807.9072 14.2810	 141207433.8159 2.2975 83207242.3237 1.3538 46692980.6823 0.7597 52376856.4285 0.8522	 1606645300.1983 26.1412 503405603.7851 8.1908 310487609.8389 5.0518 420158350.7773 6.8363	 0.4180 0.2253 0.1560 0.1752	 4.5231 0.8542 0.4794 0.8480	 2.2043 1.5244 1.1061 1.1716	 0.9632 0.1440 0.0982 0.1789	 3.5725 1.9349 0.5109 0.6586	 2.8267 1.6338 1.6338 1.7531	 6.1419 1.7962 1.3192 1.7573	 4.2263 0.0196 0.0119 0.4326	 18.9412 2.7699 1.5418 3.1590	 14.2810	 2.2975 1.3538 0.7597 0.8522	 26.1412 8.1908 5.0518 6.8363	 451721199.4606 152909913.0316 129876529.6226 159858363.2256	 25688240.3134 13845072.8909 9585590.7959 10769907.5322	 2137236951.6438 467587072.8628 297277982.7507 464118466.1541	 7.3498 2.4880 2.1132 2.6010	 0.4180 0.2253 0.1560 0.1752	 34.7743 7.6080 4.8369 7.5515	 4440856523.6847 72.2558 53.7485 48.3936 35.9983 1256665340.0667 20.4468 13.6943 778627675.2693 12.6688 8.4850 1095380698.8503 17.8226 11.9368	 72.2558 53.7485 20.4468 12.6688 17.8226	 53.7485	 48.3936 35.9983 13.6943 8.4850 11.9368	 35.9983	 13845072.8909 0.2253	 52498686.4749 0.8542	 93688887.9023 1.5244	 8853261.3639 0.1440	 118917677.4964 1.9349	 100411226.5567 1.6338	 110393539.0919 1.7962	 1207245.4674 0.0196	 170236896.7136 2.7699	 83207242.3237 1.3538	 503405603.7851 8.1908	 0.2253	 0.8542	 1.5244	 0.1440	 1.9349	 1.6338	 1.7962	 0.0196	 2.7699	 1.3538	 8.1908	 152909913.0316	 13845072.8909	 467587072.8628	 2.4880	 0.2253	 7.6080	 1256665340.0667 20.4468	 20.4468	 13.6943	 9585590.7959 0.1560	 29465303.0660 0.4794	 67982731.0103 1.1061	 6033409.3306 0.0982	 31399962.2612 0.5109	 100411226.5567 1.6338	 81076127.8449 1.3192	 731758.4340 0.0119	 94760975.4487 1.5418	 46692980.6823 0.7597	 310487609.8389 5.0518	 0.1560	 0.4794	 1.1061	 0.0982	 0.5109	 1.6338	 1.3192	 0.0119	 1.5418	 0.7597	 5.0518	 129876529.6226	 9585590.7959	 297277982.7507	 2.1132	 0.1560	 4.8369	 778627675.2693 12.6688	 12.6688	 8.4850	 10769907.5322 0.1752	 52115362.4051 0.8480	 72005241.5254 1.1716	 10993628.3230 0.1789	 40475611.1611 0.6586	 107743000.8204 1.7531	 108006184.4759 1.7573	 26586436.4412 0.4326	 194150118.9602 3.1590	 52376856.4285 0.8522	 420158350.7773 6.8363	 0.1752	 0.8480	 1.1716	 0.1789	 0.6586	 1.7531	 1.7573	 0.4326	 3.1590	 0.8522	 6.8363	 159858363.2256	 10769907.5322	 464118466.1541	 2.6010	 0.1752	 7.5515	 1095380698.8503 17.8226	 17.8226	 11.9368	 91735716	 13028733	 312673906	 27973094	 116627572	 99664185	 26401169	 346292	 80162029	 82473524	 1.4926	 0.2120	 5.0874	 0.4551	 1.8976	 1.6216	 0.4296	 0.0056	 1.3043	 1.3419	 4	 4	 16	 5	 12	 4	 4	 6	 4	 7	 51.8804	 33.3274	 36.3788	 0	 0	 155952	 0	 16384	 0	 16384	 0	 0	 0	 137	 548	 224	 612924269	 0.0000	
comb	75087417	 25674332	 14129696	 11544636.0000	 13028733	 67	 1120707.7164	 88627254	 30043408	 17900380	 12143028.0000	 17372741	 59187139	 1.2686	 0.7882	 1.4974	 5.7632	 195524797	 44659765	 3.3035	 1.4974	 2.2061	 0.7546	 731051211	 33004585	 12.3515	 1.4974	 8.2486	 0.5576	 214394018	 4075636	 3.6223	 1.4974	 2.4191	 0.0689	 998145176 13.2931	 13.2931																			 95330621	 95241032	 89589	 89077	 0	 0	 0.0009	 0.0009	 0.0000	 0.0000	 25888358	 25698789	 189569	 189057	 56055	 0	 0.0073	 0.0073	 0.0022	 0.0000	 335213	 326099	 9114	 5018	 3354	 0	 0.0272	 0.0150	 0.0100	 0.0000	 95330621	 95330586	 35	 0	 0	 0	 0.0000	 0.0000	 0.0000	 0.0000	 26556007	 26555909	 98	 0	 0	 0	 0.0000	 0.0000	 0.0000	 0.0000	 24738181.3562 0.4180 13453713.4152 0.2273 9260703.6108 0.1565 10389150.3994 0.1755	 267710910.5921 4.5231 52100900.1243 0.8803 29465303.0661 0.4978 51139158.6490 0.8640	 130467359.7739 2.2043 90863790.1886 1.5352 65934736.0265 1.1140 69737571.6142 1.1783	 57007867.8649 0.9632 8744302.2015 0.1477 5868103.5053 0.0991 10625084.7420 0.1795	 211444402.9371 3.5725 114929163.5016 1.9418 30777699.9920 0.5200 39476555.2571 0.6670	 167303742.6829 2.8267 97040773.7003 1.6396 97040773.7003 1.6396 104067070.5962 1.7583	 363519058.5050 6.1419 109286355.3943 1.8465 79501321.4337 1.3432 105145802.8377 1.7765	 250139698.2474 4.2263 1167191.1748 0.0197 708347.1173 0.0120 25605894.6786 0.4326	 1121073983.1336 845254192.9745 18.9412 14.2810 167290551.3402 2.8265 92531237.4943 1.5634 187909580.3135 3.1748	 845254192.9745 14.2810	 135984990.1422 2.2975 81504289.2614 1.3771 45506980.7152 0.7689 50836629.3376 0.8589	 1547224812.6705 26.1412 492071314.7833 8.3138 302802010.2160 5.1160 407687596.1114 6.8881	 0.4180 0.2273 0.1565 0.1755	 4.5231 0.8803 0.4978 0.8640	 2.2043 1.5352 1.1140 1.1783	 0.9632 0.1477 0.0991 0.1795	 3.5725 1.9418 0.5200 0.6670	 2.8267 1.6396 1.6396 1.7583	 6.1419 1.8465 1.3432 1.7765	 4.2263 0.0197 0.0120 0.4326	 18.9412 2.8265 1.5634 3.1748	 14.2810	 2.2975 1.3771 0.7689 0.8589	 26.1412 8.3138 5.1160 6.8881	 435014653.2750 149141673.8246 126506076.7663 155206229.2453	 24738181.3562 13453713.4152 9260703.6108 10389150.3994	 2058192957.6669 458856479.5607 290050726.2923 449860563.5236	 7.3498 2.5198 2.1374 2.6223	 0.4180 0.2273 0.1565 0.1755	 34.7743 7.7526 4.9006 7.6006	 4276615007.9058 72.2558 53.7485 48.2539 35.8944 1228452345.0856 20.7554 13.8609 759397216.8774 12.8304 8.5684 1062620094.5368 17.9536 11.9898	 72.2558 53.7485 20.7554 12.8304 17.9536	 53.7485	 48.2539 35.8944 13.8609 8.5684 11.9898	 35.8944	 13453713.4152 0.2273	 52100900.1243 0.8803	 90863790.1886 1.5352	 8744302.2015 0.1477	 114929163.5016 1.9418	 97040773.7003 1.6396	 109286355.3943 1.8465	 1167191.1748 0.0197	 167290551.3402 2.8265	 81504289.2614 1.3771	 492071314.7833 8.3138	 0.2273	 0.8803	 1.5352	 0.1477	 1.9418	 1.6396	 1.8465	 0.0197	 2.8265	 1.3771	 8.3138	 149141673.8246	 13453713.4152	 458856479.5607	 2.5198	 0.2273	 7.7526	 1228452345.0856 20.7554	 20.7554	 13.8609	 9260703.6108 0.1565	 29465303.0661 0.4978	 65934736.0265 1.1140	 5868103.5053 0.0991	 30777699.9920 0.5200	 97040773.7003 1.6396	 79501321.4337 1.3432	 708347.1173 0.0120	 92531237.4943 1.5634	 45506980.7152 0.7689	 302802010.2160 5.1160	 0.1565	 0.4978	 1.1140	 0.0991	 0.5200	 1.6396	 1.3432	 0.0120	 1.5634	 0.7689	 5.1160	 126506076.7663	 9260703.6108	 290050726.2923	 2.1374	 0.1565	 4.9006	 759397216.8774 12.8304	 12.8304	 8.5684	 10389150.3994 0.1755	 51139158.6490 0.8640	 69737571.6142 1.1783	 10625084.7420 0.1795	 39476555.2571 0.6670	 104067070.5962 1.7583	 105145802.8377 1.7765	 25605894.6786 0.4326	 187909580.3135 3.1748	 50836629.3376 0.8589	 407687596.1114 6.8881	 0.1755	 0.8640	 1.1783	 0.1795	 0.6670	 1.7583	 1.7765	 0.4326	 3.1748	 0.8589	 6.8881	 155206229.2453	 10389150.3994	 449860563.5236	 2.6223	 0.1755	 7.6006	 1062620094.5368 17.9536	 17.9536	 11.9898	 88626491	 13028733	 303135438	 27319063	 114314650	 95331599	 25888358	 335213	 78260643	 80427429	 1.4974	 0.2201	 5.1216	 0.4616	 1.9314	 1.6107	 0.4374	 0.0057	 1.3223	 1.3589	 4	 4	 16	 5	 12	 4	 4	 4	 4	 8	 52.2881	 33.3508	 36.3989	 0	 0	 155952	 0	 16384	 0	 16384	 0	 0	 0	 137	 548	 203	 594691304	 0.0000	
